
 ===================================================
  XFOIL Version 6.99
  Copyright (C) 2000   Mark Drela, Harold Youngren

  This software comes with ABSOLUTELY NO WARRANTY,
    subject to the GNU General Public License.

  Caveat computor
 ===================================================

 File  xfoil.def  not found

   QUIT    Exit program

  .OPER    Direct operating point(s)
  .MDES    Complex mapping design routine
  .QDES    Surface speed design routine
  .GDES    Geometry design routine

   SAVE f  Write airfoil to labeled coordinate file
   PSAV f  Write airfoil to plain coordinate file
   ISAV f  Write airfoil to ISES coordinate file
   MSAV f  Write airfoil to MSES coordinate file
   REVE    Reverse written-airfoil node ordering

   LOAD f  Read buffer airfoil from coordinate file
   NACA i  Set NACA 4,5-digit airfoil and buffer airfoil
   INTE    Set buffer airfoil by interpolating two airfoils
   NORM    Buffer airfoil normalization toggle
   XYCM rr Change CM reference location, currently  0.25000 0.00000

   BEND    Display structural properties of current airfoil

   PCOP    Set current-airfoil panel nodes directly from buffer airfoil points
   PANE    Set current-airfoil panel nodes ( 160 ) based on curvature
  .PPAR    Show/change paneling

  .PLOP    Plotting options

   WDEF f  Write  current-settings file
   RDEF f  Reread current-settings file
   NAME s  Specify new airfoil name
   NINC    Increment name version number

   Z       Zoom    | (available in all menus)
   U       Unzoom  | 

 XFOIL   c>   ...............................................

  G raphics-enable flag:        T
  S ize of plot object          10.00"
  A spect ratio of plot object   0.5500
  P age dimensions              11.00 x  8.50"
  M argins from page edges       0.00",  0.00"
  F ont size (relative)          0.0150
  W indow/screen size fraction   0.8000
  B lowup input method:        Cursor    
  O rientation of plot:        Landscape 
  C olor PostScript output?     F

      Option, Value   (or <Return>)    c>   ...............................................

  G raphics-enable flag:        F
  S ize of plot object          10.00"
  A spect ratio of plot object   0.5500
  P age dimensions              11.00 x  8.50"
  M argins from page edges       0.00",  0.00"
  F ont size (relative)          0.0150
  W indow/screen size fraction   0.8000
  B lowup input method:        Cursor    
  O rientation of plot:        Landscape 
  C olor PostScript output?     F

      Option, Value   (or <Return>)    c>  
 XFOIL   c>  
Enter filename   s>  
 Labeled airfoil file.  Name:  fxairfoil                                       

 Number of input coordinate points:  87
 Counterclockwise ordering
 Max thickness =     0.181956  at x =   0.339
 Max camber    =     0.037410  at x =   0.371

  LE  x,y  =  -0.00005   0.00101  |   Chord =   1.00006
  TE  x,y  =   1.00000   0.00000  |

 Current airfoil nodes set from buffer airfoil nodes (  87 )

 XFOIL   c>  
.OPERi   c>   Current iteration limit:          10

Enter new iteration limit   i>  
.OPERi   c>  
Enter Reynolds number   r>  
 M  =    0.0000
 Re =   3000000

.OPERv   c>  
 Polar  1 newly created for accumulation
 Airfoil archived with polar: fxairfoil                                       

Enter  polar save filename  OR  <return> for no file   s>  
 New polar save file available

Enter  polar dump filename  OR  <return> for no file   s>  
 Polar dump file will NOT be written

 Polar accumulation enabled

.OPERva   c>  
Enter angle of attack (deg)   r>   Calculating unit vorticity distributions ...
 Calculating wake trajectory ...
 Calculating source influence matrix ...

 Solving BL system ...

 Initializing BL ...
    side            1  ...
 MRCHUE: Inverse mode at  23     Hk =   8.355
 MRCHUE: Inverse mode at  24     Hk =   2.500
 MRCHUE: Inverse mode at  41     Hk =   2.500
 MRCHUE: Convergence failed at  41  side 1    Res =  0.5875E-04
 MRCHUE: Inverse mode at  42     Hk =   2.500
    side            2  ...
 MRCHUE: Inverse mode at   8     Hk =   9.373
 MRCHUE: Inverse mode at   9     Hk =   2.500
 MRCHUE: Convergence failed at  47  side 2    Res =  0.1359E+01

 Side 1  free  transition at x/c =  0.5001   24
 Side 2  free  transition at x/c =  0.0169    8

   1   rms: 0.3202E+00   max: -.2150E+01   D at   24  1   RLX: 0.233
       a = -5.000      CL = -0.1629
      Cm = -0.0765     CD =  0.00591   =>   CDf =  0.00572    CDp =  0.00020

 Side 1  free  transition at x/c =  0.5079   24
 Side 2  free  transition at x/c =  0.0168    8

   2   rms: 0.1520E+00   max: -.7965E+00   D at   24  1   RLX: 0.628
       a = -5.000      CL = -0.1456
      Cm = -0.0784     CD =  0.00735   =>   CDf =  0.00576    CDp =  0.00158

 Side 1  free  transition at x/c =  0.5158   24
 Side 2  free  transition at x/c =  0.0166    8

   3   rms: 0.7380E-01   max: -.4146E+00   D at   47  2
       a = -5.000      CL = -0.1185
      Cm = -0.0834     CD =  0.00838   =>   CDf =  0.00583    CDp =  0.00255

 Side 1  free  transition at x/c =  0.5171   24
 Side 2  free  transition at x/c =  0.0163    8

   4   rms: 0.2778E-01   max: -.1735E+00   D at   47  2
       a = -5.000      CL = -0.1063
      Cm = -0.0861     CD =  0.00837   =>   CDf =  0.00589    CDp =  0.00248

 Side 1  free  transition at x/c =  0.5157   24
 Side 2  free  transition at x/c =  0.0160    8

   5   rms: 0.3803E-02   max: -.2347E-01   D at   47  2
       a = -5.000      CL = -0.1047
      Cm = -0.0864     CD =  0.00837   =>   CDf =  0.00592    CDp =  0.00245

 Side 1  free  transition at x/c =  0.5156   24
 Side 2  free  transition at x/c =  0.0159    8

   6   rms: 0.1049E-03   max: -.1224E-02   D at    8  2
       a = -5.000      CL = -0.1047
      Cm = -0.0865     CD =  0.00837   =>   CDf =  0.00592    CDp =  0.00245

 Side 1  free  transition at x/c =  0.5156   24
 Side 2  free  transition at x/c =  0.0159    8

   7   rms: 0.5797E-06   max: -.6261E-05   D at    8  2
       a = -5.000      CL = -0.1047
      Cm = -0.0865     CD =  0.00837   =>   CDf =  0.00592    CDp =  0.00245
 plradd ia,ip,cpol            1          41  1.07000000E-03

 Point added to stored polar  1
 Point written to save file  XFOIL_Polar_Output.dat                          
 Dump file unspecified or not available

.OPERva   c>  
Enter angle of attack (deg)   r>   Calculating wake trajectory ...
 Calculating source influence matrix ...

 Solving BL system ...

 Side 1  free  transition at x/c =  0.5156   24
 Side 2  free  transition at x/c =  0.0159    8

   1   rms: 0.1677E-01   max: 0.1190E+00   D at    8  2
       a = -4.900      CL = -0.0934
      Cm = -0.0865     CD =  0.00835   =>   CDf =  0.00592    CDp =  0.00243

 Side 1  free  transition at x/c =  0.5139   24
 Side 2  free  transition at x/c =  0.0161    8

   2   rms: 0.1253E-02   max: 0.1872E-01   D at    8  2
       a = -4.900      CL = -0.0934
      Cm = -0.0865     CD =  0.00835   =>   CDf =  0.00592    CDp =  0.00243

 Side 1  free  transition at x/c =  0.5138   24
 Side 2  free  transition at x/c =  0.0160    8

   3   rms: 0.1730E-04   max: 0.2585E-03   D at    8  2
       a = -4.900      CL = -0.0934
      Cm = -0.0865     CD =  0.00835   =>   CDf =  0.00592    CDp =  0.00243
 plradd ia,ip,cpol            2          41  1.07000000E-03

 Point added to stored polar  1
 Point written to save file  XFOIL_Polar_Output.dat                          
 Dump file unspecified or not available

.OPERva   c>  
Enter angle of attack (deg)   r>   Calculating wake trajectory ...
 Calculating source influence matrix ...

 Solving BL system ...

 Side 1  free  transition at x/c =  0.5138   24
 Side 2  free  transition at x/c =  0.0160    8

   1   rms: 0.1408E-01   max: -.1426E-01   D at   45  2
       a = -4.800      CL = -0.0823
      Cm = -0.0866     CD =  0.00832   =>   CDf =  0.00592    CDp =  0.00239

 Side 1  free  transition at x/c =  0.5129   24
 Side 2  free  transition at x/c =  0.0161    8

   2   rms: 0.2109E-03   max: -.3018E-02   D at    8  2
       a = -4.800      CL = -0.0823
      Cm = -0.0866     CD =  0.00832   =>   CDf =  0.00593    CDp =  0.00239

 Side 1  free  transition at x/c =  0.5129   24
 Side 2  free  transition at x/c =  0.0161    8

   3   rms: 0.1366E-05   max: 0.1298E-04   D at    8  2
       a = -4.800      CL = -0.0823
      Cm = -0.0866     CD =  0.00832   =>   CDf =  0.00593    CDp =  0.00239
 plradd ia,ip,cpol            3          41  1.07000000E-03

 Point added to stored polar  1
 Point written to save file  XFOIL_Polar_Output.dat                          
 Dump file unspecified or not available

.OPERva   c>  
Enter angle of attack (deg)   r>   Calculating wake trajectory ...
 Calculating source influence matrix ...

 Solving BL system ...

 Side 1  free  transition at x/c =  0.5129   24
 Side 2  free  transition at x/c =  0.0161    8

   1   rms: 0.5567E-01   max: 0.6651E+00   D at    8  2
       a = -4.700      CL = -0.0703
      Cm = -0.0869     CD =  0.00838   =>   CDf =  0.00593    CDp =  0.00245

 Side 1  free  transition at x/c =  0.5120   24
 Side 2  free  transition at x/c =  0.0321   10

   2   rms: 0.6329E-01   max: 0.7716E+00   D at    8  2   RLX: 0.959
       a = -4.700      CL = -0.0733
      Cm = -0.0863     CD =  0.00805   =>   CDf =  0.00585    CDp =  0.00219

 Side 1  free  transition at x/c =  0.5121   24
 Side 2  free  transition at x/c =  0.0208    9

   3   rms: 0.2359E+00   max: -.2919E+01   D at    9  2   RLX: 0.171
       a = -4.700      CL = -0.0746
      Cm = -0.0870     CD =  0.00830   =>   CDf =  0.00592    CDp =  0.00238

 Side 1  free  transition at x/c =  0.5121   24
 Side 2  free  transition at x/c =  0.0177    9

   4   rms: 0.2995E+01   max: 0.3877E+02   D at    8  2   RLX: 0.039
       a = -4.700      CL = -0.0729
      Cm = -0.0876     CD =  0.00851   =>   CDf =  0.00592    CDp =  0.00259

 MRCHDU: Convergence failed at   8  side 2    Res =  0.2308E+00
 MRCHDU: Convergence failed at   9  side 2    Res =  0.1062E+01
 MRCHDU: Convergence failed at  10  side 2    Res =  0.1263E+02
 MRCHDU: Convergence failed at  11  side 2    Res =  0.1058E+02
 MRCHDU: Convergence failed at  12  side 2    Res =  0.3423E+01
 MRCHDU: Convergence failed at  13  side 2    Res =  0.2946E+01
 MRCHDU: Convergence failed at  14  side 2    Res =  0.3035E+01
 MRCHDU: Convergence failed at  15  side 2    Res =  0.3184E+01
 MRCHDU: Convergence failed at  16  side 2    Res =  0.3432E+01
 MRCHDU: Convergence failed at  17  side 2    Res =  0.3601E+01
 MRCHDU: Convergence failed at  18  side 2    Res =  0.2758E+01
 MRCHDU: Convergence failed at  19  side 2    Res =  0.3432E+01
 MRCHDU: Convergence failed at  20  side 2    Res =  0.3132E+01
 MRCHDU: Convergence failed at  21  side 2    Res =  0.2903E+01
 MRCHDU: Convergence failed at  22  side 2    Res =  0.3124E+01
 MRCHDU: Convergence failed at  23  side 2    Res =  0.3200E+01
 MRCHDU: Convergence failed at  24  side 2    Res =  0.3370E+01
 MRCHDU: Convergence failed at  25  side 2    Res =  0.3522E+01
 MRCHDU: Convergence failed at  26  side 2    Res =  0.3717E+01
 MRCHDU: Convergence failed at  27  side 2    Res =  0.3969E+01
 MRCHDU: Convergence failed at  28  side 2    Res =  0.4754E+01
 MRCHDU: Convergence failed at  29  side 2    Res =  0.5769E+01
 MRCHDU: Convergence failed at  30  side 2    Res =  0.7655E+01
 MRCHDU: Convergence failed at  31  side 2    Res =  0.1036E+02
 MRCHDU: Convergence failed at  32  side 2    Res =  0.1657E+02
 MRCHDU: Convergence failed at  33  side 2    Res =  0.2475E+02
 MRCHDU: Convergence failed at  34  side 2    Res =  0.4274E+02
 MRCHDU: Convergence failed at  35  side 2    Res =  0.6874E+02
 MRCHDU: Convergence failed at  36  side 2    Res =  0.4471E+03
 MRCHDU: Convergence failed at  37  side 2    Res =  0.3883E+02
 MRCHDU: Convergence failed at  38  side 2    Res =  0.1589E+02
 MRCHDU: Convergence failed at  39  side 2    Res =  0.1003E+02
 MRCHDU: Convergence failed at  40  side 2    Res =  0.1479E+02
 MRCHDU: Convergence failed at  41  side 2    Res =  0.1628E+02
 MRCHDU: Convergence failed at  42  side 2    Res =  0.1733E+02
 MRCHDU: Convergence failed at  43  side 2    Res =  0.1496E+03
 MRCHDU: Convergence failed at  44  side 2    Res =  0.7784E+02
 MRCHDU: Convergence failed at  45  side 2    Res =  0.2191E+02
 MRCHDU: Convergence failed at  46  side 2    Res =  0.3288E+02
 MRCHDU: Convergence failed at  47  side 2    Res =  0.1614E+05
 Side 1  free  transition at x/c =  0.5120   24
 Side 2 forced transition at x/c =  1.0000   47

   5   rms: 0.7436E+00   max: -.8375E+00   U at   47  2   RLX: 0.448
       a = -4.700      CL = -0.7993
      Cm =  0.1445     CD =  0.00314   =>   CDf =  0.00485    CDp = -0.00170

 Side 1  free  transition at x/c =  0.5127   24
 Side 2  free  transition at x/c =  0.0393   11

   6   rms: 0.5302E+00   max: -.2683E+01   D at   11  2   RLX: 0.186
       a = -4.700      CL = -0.6506
      Cm =  0.0949     CD =  0.00551   =>   CDf =  0.00822    CDp = -0.00271

 Side 1  free  transition at x/c =  0.5127   24
 Side 2  free  transition at x/c =  0.0234    9

   7   rms: 0.4582E+00   max: 0.3496E+01   C at    9  2   RLX: 0.203
       a = -4.700      CL = -0.5264
      Cm =  0.0545     CD =  0.00585   =>   CDf =  0.00784    CDp = -0.00199

 Side 1  free  transition at x/c =  0.5126   24
 Side 2  free  transition at x/c =  0.0191    9

   8   rms: 0.4074E+00   max: 0.4012E+01   D at    8  2   RLX: 0.374
       a = -4.700      CL = -0.3524
      Cm = -0.0013     CD =  0.00641   =>   CDf =  0.00745    CDp = -0.00104

 Side 1  free  transition at x/c =  0.5125   24
 Side 2  free  transition at x/c =  0.0169    8

   9   rms: 0.1927E+00   max: 0.2122E+00   D at   54  2
       a = -4.700      CL = -0.0771
      Cm = -0.0857     CD =  0.00785   =>   CDf =  0.00676    CDp =  0.00109

 Side 1  free  transition at x/c =  0.5121   24
 Side 2  free  transition at x/c =  0.0169    8

  10   rms: 0.7401E-02   max: -.3409E-01   D at   47  2
       a = -4.700      CL = -0.0698
      Cm = -0.0870     CD =  0.00845   =>   CDf =  0.00581    CDp =  0.00264

 Side 1  free  transition at x/c =  0.5120   24
 Side 2  free  transition at x/c =  0.0169    8

  11   rms: 0.9744E-04   max: -.5734E-03   D at   47  2
       a = -4.700      CL = -0.0697
      Cm = -0.0870     CD =  0.00845   =>   CDf =  0.00581    CDp =  0.00264
 plradd ia,ip,cpol            4          41  1.07000000E-03

 Point added to stored polar  1
 Point written to save file  XFOIL_Polar_Output.dat                          
 Dump file unspecified or not available

.OPERva   c>  
Enter angle of attack (deg)   r>   Calculating wake trajectory ...
 Calculating source influence matrix ...

 Solving BL system ...

 Side 1  free  transition at x/c =  0.5120   24
 Side 2  free  transition at x/c =  0.0169    8

   1   rms: 0.7772E-01   max: -.7463E+00   D at    9  2   RLX: 0.670
       a = -4.600      CL = -0.0636
      Cm = -0.0867     CD =  0.00828   =>   CDf =  0.00581    CDp =  0.00247

 Side 1  free  transition at x/c =  0.5108   24
 Side 2  free  transition at x/c =  0.0246    9

   2   rms: 0.1190E+00   max: -.1844E+01   D at    9  2   RLX: 0.271
       a = -4.600      CL = -0.0645
      Cm = -0.0870     CD =  0.00815   =>   CDf =  0.00590    CDp =  0.00226

 Side 1  free  transition at x/c =  0.5106   24
 Side 2  free  transition at x/c =  0.0197    9

   3   rms: 0.1400E+00   max: -.1642E+01   D at    9  2   RLX: 0.305
       a = -4.600      CL = -0.0629
      Cm = -0.0871     CD =  0.00826   =>   CDf =  0.00594    CDp =  0.00232

 Side 1  free  transition at x/c =  0.5104   24
 Side 2  free  transition at x/c =  0.0168    8

   4   rms: 0.2992E-01   max: 0.4255E+00   D at    8  2
       a = -4.600      CL = -0.0600
      Cm = -0.0867     CD =  0.00825   =>   CDf =  0.00594    CDp =  0.00231

 Side 1  free  transition at x/c =  0.5100   24
 Side 2  free  transition at x/c =  0.0163    8

   5   rms: 0.7853E-02   max: 0.1182E+00   D at    8  2
       a = -4.600      CL = -0.0599
      Cm = -0.0867     CD =  0.00827   =>   CDf =  0.00594    CDp =  0.00233

 Side 1  free  transition at x/c =  0.5100   24
 Side 2  free  transition at x/c =  0.0163    8

   6   rms: 0.7858E-03   max: 0.1159E-01   D at    8  2
       a = -4.600      CL = -0.0599
      Cm = -0.0867     CD =  0.00827   =>   CDf =  0.00594    CDp =  0.00233

 Side 1  free  transition at x/c =  0.5100   24
 Side 2  free  transition at x/c =  0.0163    8

   7   rms: 0.7482E-05   max: 0.1097E-03   D at    8  2
       a = -4.600      CL = -0.0599
      Cm = -0.0867     CD =  0.00827   =>   CDf =  0.00593    CDp =  0.00233
 plradd ia,ip,cpol            5          41  1.07000000E-03

 Point added to stored polar  1
 Point written to save file  XFOIL_Polar_Output.dat                          
 Dump file unspecified or not available

.OPERva   c>  
Enter angle of attack (deg)   r>   Calculating wake trajectory ...
 Calculating source influence matrix ...

 Solving BL system ...

 Side 1  free  transition at x/c =  0.5100   24
 Side 2  free  transition at x/c =  0.0163    8

   1   rms: 0.4649E-01   max: 0.5046E+00   D at    8  2
       a = -4.500      CL = -0.0481
      Cm = -0.0869     CD =  0.00833   =>   CDf =  0.00593    CDp =  0.00239

 Side 1  free  transition at x/c =  0.5082   24
 Side 2  free  transition at x/c =  0.0280   10

   2   rms: 0.8020E-01   max: -.1067E+01   D at    9  2   RLX: 0.469
       a = -4.500      CL = -0.0512
      Cm = -0.0870     CD =  0.00803   =>   CDf =  0.00589    CDp =  0.00214

 Side 1  free  transition at x/c =  0.5083   24
 Side 2  free  transition at x/c =  0.0234    9

   3   rms: 0.1864E+00   max: -.2404E+01   D at    9  2   RLX: 0.208
       a = -4.500      CL = -0.0508
      Cm = -0.0872     CD =  0.00821   =>   CDf =  0.00593    CDp =  0.00229

 Side 1  free  transition at x/c =  0.5082   24
 Side 2  free  transition at x/c =  0.0195    9

   4   rms: 0.1941E+00   max: 0.2771E+01   D at    8  2   RLX: 0.426
       a = -4.500      CL = -0.0493
      Cm = -0.0872     CD =  0.00830   =>   CDf =  0.00596    CDp =  0.00235

 Side 1  free  transition at x/c =  0.5082   24
 Side 2  free  transition at x/c =  0.0169    8

   5   rms: 0.1061E-01   max: 0.1090E+00   D at    8  2
       a = -4.500      CL = -0.0479
      Cm = -0.0870     CD =  0.00836   =>   CDf =  0.00587    CDp =  0.00249

 Side 1  free  transition at x/c =  0.5082   24
 Side 2  free  transition at x/c =  0.0169    8

   6   rms: 0.5372E-03   max: 0.5195E-02   D at    9  2
       a = -4.500      CL = -0.0479
      Cm = -0.0870     CD =  0.00836   =>   CDf =  0.00585    CDp =  0.00250

 Side 1  free  transition at x/c =  0.5082   24
 Side 2  free  transition at x/c =  0.0169    8

   7   rms: 0.1927E-05   max: 0.1758E-04   D at    9  2
       a = -4.500      CL = -0.0479
      Cm = -0.0870     CD =  0.00836   =>   CDf =  0.00585    CDp =  0.00251
 plradd ia,ip,cpol            6          41  1.07000000E-03

 Point added to stored polar  1
 Point written to save file  XFOIL_Polar_Output.dat                          
 Dump file unspecified or not available

.OPERva   c>  
Enter angle of attack (deg)   r>   Calculating wake trajectory ...
 Calculating source influence matrix ...

 Solving BL system ...

 Side 1  free  transition at x/c =  0.5082   24
 Side 2  free  transition at x/c =  0.0169    8

   1   rms: 0.1811E-01   max: -.1337E+00   D at    9  2
       a = -4.400      CL = -0.0370
      Cm = -0.0870     CD =  0.00830   =>   CDf =  0.00585    CDp =  0.00244

 Side 1  free  transition at x/c =  0.5070   24
 Side 2  free  transition at x/c =  0.0168    8

   2   rms: 0.1704E-03   max: -.1589E-02   D at    9  2
       a = -4.400      CL = -0.0369
      Cm = -0.0870     CD =  0.00830   =>   CDf =  0.00588    CDp =  0.00242

 Side 1  free  transition at x/c =  0.5069   24
 Side 2  free  transition at x/c =  0.0168    8

   3   rms: 0.8468E-06   max: -.2818E-05   C at   14  2
       a = -4.400      CL = -0.0369
      Cm = -0.0870     CD =  0.00830   =>   CDf =  0.00588    CDp =  0.00242
 plradd ia,ip,cpol            7          41  1.07000000E-03

 Point added to stored polar  1
 Point written to save file  XFOIL_Polar_Output.dat                          
 Dump file unspecified or not available

.OPERva   c>  
Enter angle of attack (deg)   r>   Calculating wake trajectory ...
 Calculating source influence matrix ...

 Solving BL system ...

 Side 1  free  transition at x/c =  0.5069   24
 Side 2  free  transition at x/c =  0.0168    8

   1   rms: 0.2307E-01   max: 0.2079E+00   D at    9  2
       a = -4.300      CL = -0.0254
      Cm = -0.0871     CD =  0.00832   =>   CDf =  0.00588    CDp =  0.00244

 Side 1  free  transition at x/c =  0.5052   24
 Side 2  free  transition at x/c =  0.0169    8

   2   rms: 0.9155E-03   max: 0.9259E-02   D at    9  2
       a = -4.300      CL = -0.0254
      Cm = -0.0871     CD =  0.00832   =>   CDf =  0.00585    CDp =  0.00248

 Side 1  free  transition at x/c =  0.5052   24
 Side 2  free  transition at x/c =  0.0169    8

   3   rms: 0.4059E-05   max: 0.4011E-04   D at    9  2
       a = -4.300      CL = -0.0254
      Cm = -0.0871     CD =  0.00832   =>   CDf =  0.00585    CDp =  0.00248
 plradd ia,ip,cpol            8          41  1.07000000E-03

 Point added to stored polar  1
 Point written to save file  XFOIL_Polar_Output.dat                          
 Dump file unspecified or not available

.OPERva   c>  
Enter angle of attack (deg)   r>   Calculating wake trajectory ...
 Calculating source influence matrix ...

 Solving BL system ...

 Side 1  free  transition at x/c =  0.5052   24
 Side 2  free  transition at x/c =  0.0169    8

   1   rms: 0.5618E-01   max: -.5672E+00   D at    9  2   RLX: 0.882
       a = -4.200      CL = -0.0167
      Cm = -0.0869     CD =  0.00817   =>   CDf =  0.00585    CDp =  0.00232

 Side 1  free  transition at x/c =  0.5037   24
 Side 2  free  transition at x/c =  0.0263    9

   2   rms: 0.1209E+00   max: -.1857E+01   C at    9  2   RLX: 0.269
       a = -4.200      CL = -0.0186
      Cm = -0.0872     CD =  0.00802   =>   CDf =  0.00592    CDp =  0.00210

 Side 1  free  transition at x/c =  0.5036   24
 Side 2  free  transition at x/c =  0.0222    9

   3   rms: 0.1612E+00   max: -.2212E+01   D at    9  2   RLX: 0.226
       a = -4.200      CL = -0.0174
      Cm = -0.0873     CD =  0.00815   =>   CDf =  0.00596    CDp =  0.00219

 Side 1  free  transition at x/c =  0.5036   24
 Side 2  free  transition at x/c =  0.0185    9

   4   rms: 0.1613E+00   max: 0.2442E+01   D at    8  2   RLX: 0.614
       a = -4.200      CL = -0.0158
      Cm = -0.0872     CD =  0.00820   =>   CDf =  0.00598    CDp =  0.00222

 Side 1  free  transition at x/c =  0.5035   24
 Side 2  free  transition at x/c =  0.0166    8

   5   rms: 0.3606E-01   max: -.3453E+00   D at    9  2
       a = -4.200      CL = -0.0152
      Cm = -0.0869     CD =  0.00818   =>   CDf =  0.00588    CDp =  0.00229

 Side 1  free  transition at x/c =  0.5034   24
 Side 2  free  transition at x/c =  0.0249    9

   6   rms: 0.1200E+00   max: -.1712E+01   D at    9  2   RLX: 0.292
       a = -4.200      CL = -0.0166
      Cm = -0.0870     CD =  0.00803   =>   CDf =  0.00592    CDp =  0.00210

 Side 1  free  transition at x/c =  0.5034   24
 Side 2  free  transition at x/c =  0.0212    9

   7   rms: 0.1661E+00   max: -.2394E+01   D at    9  2   RLX: 0.209
       a = -4.200      CL = -0.0162
      Cm = -0.0871     CD =  0.00814   =>   CDf =  0.00596    CDp =  0.00218

 Side 1  free  transition at x/c =  0.5034   24
 Side 2  free  transition at x/c =  0.0180    9

   8   rms: 0.2113E+00   max: 0.3203E+01   D at    8  2   RLX: 0.468
       a = -4.200      CL = -0.0152
      Cm = -0.0873     CD =  0.00823   =>   CDf =  0.00597    CDp =  0.00226

 Side 1  free  transition at x/c =  0.5034   24
 Side 2  free  transition at x/c =  0.0166    8

   9   rms: 0.5401E-01   max: -.5712E+00   D at    9  2   RLX: 0.875
       a = -4.200      CL = -0.0154
      Cm = -0.0869     CD =  0.00817   =>   CDf =  0.00585    CDp =  0.00232

 MRCHDU: Convergence failed at   9  side 2    Res =  0.3281E+00
 Side 1  free  transition at x/c =  0.5034   24
 Side 2  free  transition at x/c =  0.0254    9

  10   rms: 0.7243E-01   max: -.7790E+00   D at    9  2   RLX: 0.642
       a = -4.200      CL = -0.0175
      Cm = -0.0872     CD =  0.00807   =>   CDf =  0.00592    CDp =  0.00215

 Side 1  free  transition at x/c =  0.5034   24
 Side 2  free  transition at x/c =  0.0187    9

  11   rms: 0.1339E+00   max: 0.1993E+01   D at    8  2   RLX: 0.753
       a = -4.200      CL = -0.0160
      Cm = -0.0871     CD =  0.00817   =>   CDf =  0.00599    CDp =  0.00218

 Side 1  free  transition at x/c =  0.5034   24
 Side 2  free  transition at x/c =  0.0166    8

  12   rms: 0.2713E-01   max: -.2668E+00   D at    8  2
       a = -4.200      CL = -0.0152
      Cm = -0.0869     CD =  0.00818   =>   CDf =  0.00590    CDp =  0.00229

 Side 1  free  transition at x/c =  0.5034   24
 Side 2  free  transition at x/c =  0.0166    8

  13   rms: 0.3711E-02   max: 0.5136E-01   D at    8  2
       a = -4.200      CL = -0.0151
      Cm = -0.0870     CD =  0.00819   =>   CDf =  0.00594    CDp =  0.00225

 Side 1  free  transition at x/c =  0.5034   24
 Side 2  free  transition at x/c =  0.0166    8

  14   rms: 0.1259E-03   max: 0.1652E-02   D at    8  2
       a = -4.200      CL = -0.0151
      Cm = -0.0870     CD =  0.00819   =>   CDf =  0.00594    CDp =  0.00225

 Side 1  free  transition at x/c =  0.5034   24
 Side 2  free  transition at x/c =  0.0166    8

  15   rms: 0.1405E-05   max: 0.1327E-04   D at    9  2
       a = -4.200      CL = -0.0151
      Cm = -0.0870     CD =  0.00819   =>   CDf =  0.00594    CDp =  0.00226
 plradd ia,ip,cpol            9          41  1.07000000E-03

 Point added to stored polar  1
 Point written to save file  XFOIL_Polar_Output.dat                          
 Dump file unspecified or not available

.OPERva   c>  
Enter angle of attack (deg)   r>   Calculating wake trajectory ...
 Calculating source influence matrix ...

 Solving BL system ...

 Side 1  free  transition at x/c =  0.5034   24
 Side 2  free  transition at x/c =  0.0166    8

   1   rms: 0.4072E-01   max: -.3654E+00   D at    9  2
       a = -4.100      CL = -0.0045
      Cm = -0.0869     CD =  0.00809   =>   CDf =  0.00594    CDp =  0.00215

 Side 1  free  transition at x/c =  0.5045   24
 Side 2  free  transition at x/c =  0.0217    9

   2   rms: 0.1366E+00   max: -.2055E+01   D at    9  2   RLX: 0.243
       a = -4.100      CL = -0.0054
      Cm = -0.0873     CD =  0.00810   =>   CDf =  0.00595    CDp =  0.00215

 Side 1  free  transition at x/c =  0.5045   24
 Side 2  free  transition at x/c =  0.0181    9

   3   rms: 0.8217E-01   max: 0.1273E+01   D at    8  2
       a = -4.100      CL = -0.0040
      Cm = -0.0870     CD =  0.00812   =>   CDf =  0.00597    CDp =  0.00215

 Side 1  free  transition at x/c =  0.5044   24
 Side 2  free  transition at x/c =  0.0162    8

   4   rms: 0.3762E-01   max: -.4547E+00   D at    8  2
       a = -4.100      CL = -0.0043
      Cm = -0.0869     CD =  0.00809   =>   CDf =  0.00594    CDp =  0.00215

 MRCHDU: Convergence failed at   8  side 2    Res =  0.1244E+01
 MRCHDU: Convergence failed at   9  side 2    Res =  0.1877E+01
 MRCHDU: Convergence failed at  10  side 2    Res =  0.1264E+01
 MRCHDU: Convergence failed at  11  side 2    Res =  0.2945E+01
 MRCHDU: Convergence failed at  12  side 2    Res =  0.5243E+02
 MRCHDU: Convergence failed at  13  side 2    Res =  0.1572E+02
 MRCHDU: Convergence failed at  14  side 2    Res =  0.8282E+01
 MRCHDU: Convergence failed at  15  side 2    Res =  0.7015E+01
 MRCHDU: Convergence failed at  16  side 2    Res =  0.5941E+01
 MRCHDU: Convergence failed at  17  side 2    Res =  0.4604E+01
 MRCHDU: Convergence failed at  18  side 2    Res =  0.2486E+01
 MRCHDU: Convergence failed at  19  side 2    Res =  0.4036E+01
 MRCHDU: Convergence failed at  20  side 2    Res =  0.3491E+01
 MRCHDU: Convergence failed at  21  side 2    Res =  0.3071E+01
 MRCHDU: Convergence failed at  22  side 2    Res =  0.3552E+01
 MRCHDU: Convergence failed at  23  side 2    Res =  0.3728E+01
 MRCHDU: Convergence failed at  24  side 2    Res =  0.4399E+01
 MRCHDU: Convergence failed at  25  side 2    Res =  0.4735E+01
 MRCHDU: Convergence failed at  26  side 2    Res =  0.5581E+01
 MRCHDU: Convergence failed at  27  side 2    Res =  0.6198E+01
 MRCHDU: Convergence failed at  28  side 2    Res =  0.9325E+01
 MRCHDU: Convergence failed at  29  side 2    Res =  0.1150E+02
 MRCHDU: Convergence failed at  30  side 2    Res =  0.1786E+02
 MRCHDU: Convergence failed at  31  side 2    Res =  0.3205E+02
 MRCHDU: Convergence failed at  32  side 2    Res =  0.9056E+02
 MRCHDU: Convergence failed at  33  side 2    Res =  0.3697E+03
 MRCHDU: Convergence failed at  34  side 2    Res =  0.3191E+03
 MRCHDU: Convergence failed at  35  side 2    Res =  0.3049E+03
 MRCHDU: Convergence failed at  36  side 2    Res =  0.4175E+03
 MRCHDU: Convergence failed at  37  side 2    Res =  0.6529E+04
 MRCHDU: Convergence failed at  38  side 2    Res =  0.7589E+03
 MRCHDU: Convergence failed at  39  side 2    Res =  0.3156E+02
 MRCHDU: Convergence failed at  40  side 2    Res =  0.2854E+02
 MRCHDU: Convergence failed at  41  side 2    Res =  0.2597E+02
 MRCHDU: Convergence failed at  42  side 2    Res =  0.1238E+02
 MRCHDU: Convergence failed at  43  side 2    Res =  0.9640E+02
 MRCHDU: Convergence failed at  44  side 2    Res =  0.1780E+03
 MRCHDU: Convergence failed at  45  side 2    Res =  0.1403E+03
 MRCHDU: Convergence failed at  46  side 2    Res =  0.1915E+02
 MRCHDU: Convergence failed at  47  side 2    Res =  0.3220E+04
 Side 1  free  transition at x/c =  0.5044   24
 Side 2 forced transition at x/c =  1.0000   47

   5   rms: 0.6975E+00   max: -.7894E+00   U at   47  2   RLX: 0.475
       a = -4.100      CL = -0.6418
      Cm =  0.1144     CD =  0.00324   =>   CDf =  0.00552    CDp = -0.00228

 Side 1  free  transition at x/c =  0.5052   24
 Side 2  free  transition at x/c =  0.0234    9

   6   rms: 0.4426E+00   max: 0.3270E+01   C at    9  2   RLX: 0.346
       a = -4.100      CL = -0.4081
      Cm =  0.0379     CD =  0.00590   =>   CDf =  0.00804    CDp = -0.00214

 Side 1  free  transition at x/c =  0.5050   24
 Side 2  free  transition at x/c =  0.0180    9

   7   rms: 0.2705E+00   max: 0.1288E+01   D at    8  2
       a = -4.100      CL = -0.0147
      Cm = -0.0851     CD =  0.00724   =>   CDf =  0.00731    CDp = -0.00007

 Side 1  free  transition at x/c =  0.5045   24
 Side 2  free  transition at x/c =  0.0162    8

   8   rms: 0.4006E-01   max: -.4504E+00   D at    8  2
       a = -4.100      CL = -0.0047
      Cm = -0.0868     CD =  0.00809   =>   CDf =  0.00593    CDp =  0.00215

 MRCHDU: Convergence failed at   8  side 2    Res =  0.1192E+01
 MRCHDU: Convergence failed at   9  side 2    Res =  0.1920E+01
 MRCHDU: Convergence failed at  10  side 2    Res =  0.1274E+01
 MRCHDU: Convergence failed at  11  side 2    Res =  0.2929E+01
 MRCHDU: Convergence failed at  12  side 2    Res =  0.5077E+02
 MRCHDU: Convergence failed at  13  side 2    Res =  0.1584E+02
 MRCHDU: Convergence failed at  14  side 2    Res =  0.8310E+01
 MRCHDU: Convergence failed at  15  side 2    Res =  0.7035E+01
 MRCHDU: Convergence failed at  16  side 2    Res =  0.5952E+01
 MRCHDU: Convergence failed at  17  side 2    Res =  0.4611E+01
 MRCHDU: Convergence failed at  18  side 2    Res =  0.2482E+01
 MRCHDU: Convergence failed at  19  side 2    Res =  0.4044E+01
 MRCHDU: Convergence failed at  20  side 2    Res =  0.3484E+01
 MRCHDU: Convergence failed at  21  side 2    Res =  0.3066E+01
 MRCHDU: Convergence failed at  22  side 2    Res =  0.3546E+01
 MRCHDU: Convergence failed at  23  side 2    Res =  0.3721E+01
 MRCHDU: Convergence failed at  24  side 2    Res =  0.4391E+01
 MRCHDU: Convergence failed at  25  side 2    Res =  0.4726E+01
 MRCHDU: Convergence failed at  26  side 2    Res =  0.5569E+01
 MRCHDU: Convergence failed at  27  side 2    Res =  0.6185E+01
 MRCHDU: Convergence failed at  28  side 2    Res =  0.9296E+01
 MRCHDU: Convergence failed at  29  side 2    Res =  0.1146E+02
 MRCHDU: Convergence failed at  30  side 2    Res =  0.1777E+02
 MRCHDU: Convergence failed at  31  side 2    Res =  0.3175E+02
 MRCHDU: Convergence failed at  32  side 2    Res =  0.8827E+02
 MRCHDU: Convergence failed at  33  side 2    Res =  0.3332E+03
 MRCHDU: Convergence failed at  34  side 2    Res =  0.3541E+03
 MRCHDU: Convergence failed at  35  side 2    Res =  0.3357E+03
 MRCHDU: Convergence failed at  36  side 2    Res =  0.4746E+03
 MRCHDU: Convergence failed at  37  side 2    Res =  0.7781E+04
 MRCHDU: Convergence failed at  38  side 2    Res =  0.6303E+03
 MRCHDU: Convergence failed at  39  side 2    Res =  0.3157E+02
 MRCHDU: Convergence failed at  40  side 2    Res =  0.2855E+02
 MRCHDU: Convergence failed at  41  side 2    Res =  0.2597E+02
 MRCHDU: Convergence failed at  42  side 2    Res =  0.1239E+02
 MRCHDU: Convergence failed at  43  side 2    Res =  0.9600E+02
 MRCHDU: Convergence failed at  44  side 2    Res =  0.1804E+03
 MRCHDU: Convergence failed at  45  side 2    Res =  0.1423E+03
 MRCHDU: Convergence failed at  46  side 2    Res =  0.1923E+02
 MRCHDU: Convergence failed at  47  side 2    Res =  0.2956E+04
 Side 1  free  transition at x/c =  0.5044   24
 Side 2 forced transition at x/c =  1.0000   47

   9   rms: 0.6977E+00   max: -.7895E+00   U at   47  2   RLX: 0.475
       a = -4.100      CL = -0.6422
      Cm =  0.1145     CD =  0.00324   =>   CDf =  0.00552    CDp = -0.00228

 Side 1  free  transition at x/c =  0.5052   24
 Side 2  free  transition at x/c =  0.0234    9

  10   rms: 0.4427E+00   max: 0.3270E+01   C at    9  2   RLX: 0.346
       a = -4.100      CL = -0.4084
      Cm =  0.0380     CD =  0.00590   =>   CDf =  0.00804    CDp = -0.00214

 Side 1  free  transition at x/c =  0.5050   24
 Side 2  free  transition at x/c =  0.0180    9

  11   rms: 0.2706E+00   max: 0.1287E+01   D at    8  2
       a = -4.100      CL = -0.0147
      Cm = -0.0851     CD =  0.00724   =>   CDf =  0.00731    CDp = -0.00007

 Side 1  free  transition at x/c =  0.5045   24
 Side 2  free  transition at x/c =  0.0162    8

  12   rms: 0.4004E-01   max: -.4503E+00   D at    8  2
       a = -4.100      CL = -0.0047
      Cm = -0.0868     CD =  0.00809   =>   CDf =  0.00593    CDp =  0.00215

 MRCHDU: Convergence failed at   8  side 2    Res =  0.1191E+01
 MRCHDU: Convergence failed at   9  side 2    Res =  0.1916E+01
 MRCHDU: Convergence failed at  10  side 2    Res =  0.1274E+01
 MRCHDU: Convergence failed at  11  side 2    Res =  0.2929E+01
 MRCHDU: Convergence failed at  12  side 2    Res =  0.5082E+02
 MRCHDU: Convergence failed at  13  side 2    Res =  0.1583E+02
 MRCHDU: Convergence failed at  14  side 2    Res =  0.8309E+01
 MRCHDU: Convergence failed at  15  side 2    Res =  0.7034E+01
 MRCHDU: Convergence failed at  16  side 2    Res =  0.5951E+01
 MRCHDU: Convergence failed at  17  side 2    Res =  0.4611E+01
 MRCHDU: Convergence failed at  18  side 2    Res =  0.2482E+01
 MRCHDU: Convergence failed at  19  side 2    Res =  0.4044E+01
 MRCHDU: Convergence failed at  20  side 2    Res =  0.3484E+01
 MRCHDU: Convergence failed at  21  side 2    Res =  0.3066E+01
 MRCHDU: Convergence failed at  22  side 2    Res =  0.3546E+01
 MRCHDU: Convergence failed at  23  side 2    Res =  0.3721E+01
 MRCHDU: Convergence failed at  24  side 2    Res =  0.4391E+01
 MRCHDU: Convergence failed at  25  side 2    Res =  0.4726E+01
 MRCHDU: Convergence failed at  26  side 2    Res =  0.5569E+01
 MRCHDU: Convergence failed at  27  side 2    Res =  0.6185E+01
 MRCHDU: Convergence failed at  28  side 2    Res =  0.9296E+01
 MRCHDU: Convergence failed at  29  side 2    Res =  0.1146E+02
 MRCHDU: Convergence failed at  30  side 2    Res =  0.1777E+02
 MRCHDU: Convergence failed at  31  side 2    Res =  0.3175E+02
 MRCHDU: Convergence failed at  32  side 2    Res =  0.8829E+02
 MRCHDU: Convergence failed at  33  side 2    Res =  0.3334E+03
 MRCHDU: Convergence failed at  34  side 2    Res =  0.3540E+03
 MRCHDU: Convergence failed at  35  side 2    Res =  0.3356E+03
 MRCHDU: Convergence failed at  36  side 2    Res =  0.4744E+03
 MRCHDU: Convergence failed at  37  side 2    Res =  0.7808E+04
 MRCHDU: Convergence failed at  38  side 2    Res =  0.6303E+03
 MRCHDU: Convergence failed at  39  side 2    Res =  0.3157E+02
 MRCHDU: Convergence failed at  40  side 2    Res =  0.2855E+02
 MRCHDU: Convergence failed at  41  side 2    Res =  0.2597E+02
 MRCHDU: Convergence failed at  42  side 2    Res =  0.1239E+02
 MRCHDU: Convergence failed at  43  side 2    Res =  0.9598E+02
 MRCHDU: Convergence failed at  44  side 2    Res =  0.1804E+03
 MRCHDU: Convergence failed at  45  side 2    Res =  0.1424E+03
 MRCHDU: Convergence failed at  46  side 2    Res =  0.1923E+02
 MRCHDU: Convergence failed at  47  side 2    Res =  0.2958E+04
 Side 1  free  transition at x/c =  0.5044   24
 Side 2 forced transition at x/c =  1.0000   47

  13   rms: 0.6977E+00   max: -.7895E+00   U at   47  2   RLX: 0.475
       a = -4.100      CL = -0.6422
      Cm =  0.1145     CD =  0.00324   =>   CDf =  0.00552    CDp = -0.00228

 Side 1  free  transition at x/c =  0.5052   24
 Side 2  free  transition at x/c =  0.0234    9

  14   rms: 0.4427E+00   max: 0.3270E+01   C at    9  2   RLX: 0.346
       a = -4.100      CL = -0.4084
      Cm =  0.0380     CD =  0.00590   =>   CDf =  0.00804    CDp = -0.00214

 Side 1  free  transition at x/c =  0.5050   24
 Side 2  free  transition at x/c =  0.0180    9

  15   rms: 0.2706E+00   max: 0.1287E+01   D at    8  2
       a = -4.100      CL = -0.0147
      Cm = -0.0851     CD =  0.00724   =>   CDf =  0.00731    CDp = -0.00007

 Side 1  free  transition at x/c =  0.5045   24
 Side 2  free  transition at x/c =  0.0162    8

  16   rms: 0.4004E-01   max: -.4503E+00   D at    8  2
       a = -4.100      CL = -0.0047
      Cm = -0.0868     CD =  0.00809   =>   CDf =  0.00593    CDp =  0.00215

 MRCHDU: Convergence failed at   8  side 2    Res =  0.1191E+01
 MRCHDU: Convergence failed at   9  side 2    Res =  0.1916E+01
 MRCHDU: Convergence failed at  10  side 2    Res =  0.1274E+01
 MRCHDU: Convergence failed at  11  side 2    Res =  0.2929E+01
 MRCHDU: Convergence failed at  12  side 2    Res =  0.5082E+02
 MRCHDU: Convergence failed at  13  side 2    Res =  0.1583E+02
 MRCHDU: Convergence failed at  14  side 2    Res =  0.8309E+01
 MRCHDU: Convergence failed at  15  side 2    Res =  0.7034E+01
 MRCHDU: Convergence failed at  16  side 2    Res =  0.5951E+01
 MRCHDU: Convergence failed at  17  side 2    Res =  0.4611E+01
 MRCHDU: Convergence failed at  18  side 2    Res =  0.2482E+01
 MRCHDU: Convergence failed at  19  side 2    Res =  0.4044E+01
 MRCHDU: Convergence failed at  20  side 2    Res =  0.3484E+01
 MRCHDU: Convergence failed at  21  side 2    Res =  0.3066E+01
 MRCHDU: Convergence failed at  22  side 2    Res =  0.3546E+01
 MRCHDU: Convergence failed at  23  side 2    Res =  0.3721E+01
 MRCHDU: Convergence failed at  24  side 2    Res =  0.4391E+01
 MRCHDU: Convergence failed at  25  side 2    Res =  0.4726E+01
 MRCHDU: Convergence failed at  26  side 2    Res =  0.5569E+01
 MRCHDU: Convergence failed at  27  side 2    Res =  0.6185E+01
 MRCHDU: Convergence failed at  28  side 2    Res =  0.9296E+01
 MRCHDU: Convergence failed at  29  side 2    Res =  0.1146E+02
 MRCHDU: Convergence failed at  30  side 2    Res =  0.1777E+02
 MRCHDU: Convergence failed at  31  side 2    Res =  0.3175E+02
 MRCHDU: Convergence failed at  32  side 2    Res =  0.8828E+02
 MRCHDU: Convergence failed at  33  side 2    Res =  0.3333E+03
 MRCHDU: Convergence failed at  34  side 2    Res =  0.3540E+03
 MRCHDU: Convergence failed at  35  side 2    Res =  0.3356E+03
 MRCHDU: Convergence failed at  36  side 2    Res =  0.4744E+03
 MRCHDU: Convergence failed at  37  side 2    Res =  0.7783E+04
 MRCHDU: Convergence failed at  38  side 2    Res =  0.6303E+03
 MRCHDU: Convergence failed at  39  side 2    Res =  0.3157E+02
 MRCHDU: Convergence failed at  40  side 2    Res =  0.2855E+02
 MRCHDU: Convergence failed at  41  side 2    Res =  0.2597E+02
 MRCHDU: Convergence failed at  42  side 2    Res =  0.1239E+02
 MRCHDU: Convergence failed at  43  side 2    Res =  0.9598E+02
 MRCHDU: Convergence failed at  44  side 2    Res =  0.1804E+03
 MRCHDU: Convergence failed at  45  side 2    Res =  0.1424E+03
 MRCHDU: Convergence failed at  46  side 2    Res =  0.1923E+02
 MRCHDU: Convergence failed at  47  side 2    Res =  0.2958E+04
 Side 1  free  transition at x/c =  0.5044   24
 Side 2 forced transition at x/c =  1.0000   47

  17   rms: 0.6977E+00   max: -.7895E+00   U at   47  2   RLX: 0.475
       a = -4.100      CL = -0.6422
      Cm =  0.1145     CD =  0.00324   =>   CDf =  0.00552    CDp = -0.00228

 Side 1  free  transition at x/c =  0.5052   24
 Side 2  free  transition at x/c =  0.0234    9

  18   rms: 0.4427E+00   max: 0.3270E+01   C at    9  2   RLX: 0.346
       a = -4.100      CL = -0.4084
      Cm =  0.0380     CD =  0.00590   =>   CDf =  0.00804    CDp = -0.00214

 Side 1  free  transition at x/c =  0.5050   24
 Side 2  free  transition at x/c =  0.0180    9

  19   rms: 0.2706E+00   max: 0.1287E+01   D at    8  2
       a = -4.100      CL = -0.0147
      Cm = -0.0851     CD =  0.00724   =>   CDf =  0.00731    CDp = -0.00007

 Side 1  free  transition at x/c =  0.5045   24
 Side 2  free  transition at x/c =  0.0162    8

  20   rms: 0.4004E-01   max: -.4503E+00   D at    8  2
       a = -4.100      CL = -0.0047
      Cm = -0.0868     CD =  0.00809   =>   CDf =  0.00593    CDp =  0.00215

 MRCHDU: Convergence failed at   8  side 2    Res =  0.1191E+01
 MRCHDU: Convergence failed at   9  side 2    Res =  0.1916E+01
 MRCHDU: Convergence failed at  10  side 2    Res =  0.1274E+01
 MRCHDU: Convergence failed at  11  side 2    Res =  0.2929E+01
 MRCHDU: Convergence failed at  12  side 2    Res =  0.5082E+02
 MRCHDU: Convergence failed at  13  side 2    Res =  0.1583E+02
 MRCHDU: Convergence failed at  14  side 2    Res =  0.8309E+01
 MRCHDU: Convergence failed at  15  side 2    Res =  0.7034E+01
 MRCHDU: Convergence failed at  16  side 2    Res =  0.5951E+01
 MRCHDU: Convergence failed at  17  side 2    Res =  0.4611E+01
 MRCHDU: Convergence failed at  18  side 2    Res =  0.2482E+01
 MRCHDU: Convergence failed at  19  side 2    Res =  0.4044E+01
 MRCHDU: Convergence failed at  20  side 2    Res =  0.3484E+01
 MRCHDU: Convergence failed at  21  side 2    Res =  0.3066E+01
 MRCHDU: Convergence failed at  22  side 2    Res =  0.3546E+01
 MRCHDU: Convergence failed at  23  side 2    Res =  0.3721E+01
 MRCHDU: Convergence failed at  24  side 2    Res =  0.4391E+01
 MRCHDU: Convergence failed at  25  side 2    Res =  0.4726E+01
 MRCHDU: Convergence failed at  26  side 2    Res =  0.5569E+01
 MRCHDU: Convergence failed at  27  side 2    Res =  0.6185E+01
 MRCHDU: Convergence failed at  28  side 2    Res =  0.9296E+01
 MRCHDU: Convergence failed at  29  side 2    Res =  0.1146E+02
 MRCHDU: Convergence failed at  30  side 2    Res =  0.1777E+02
 MRCHDU: Convergence failed at  31  side 2    Res =  0.3175E+02
 MRCHDU: Convergence failed at  32  side 2    Res =  0.8828E+02
 MRCHDU: Convergence failed at  33  side 2    Res =  0.3334E+03
 MRCHDU: Convergence failed at  34  side 2    Res =  0.3540E+03
 MRCHDU: Convergence failed at  35  side 2    Res =  0.3356E+03
 MRCHDU: Convergence failed at  36  side 2    Res =  0.4746E+03
 MRCHDU: Convergence failed at  37  side 2    Res =  0.7783E+04
 MRCHDU: Convergence failed at  38  side 2    Res =  0.6303E+03
 MRCHDU: Convergence failed at  39  side 2    Res =  0.3157E+02
 MRCHDU: Convergence failed at  40  side 2    Res =  0.2855E+02
 MRCHDU: Convergence failed at  41  side 2    Res =  0.2597E+02
 MRCHDU: Convergence failed at  42  side 2    Res =  0.1239E+02
 MRCHDU: Convergence failed at  43  side 2    Res =  0.9598E+02
 MRCHDU: Convergence failed at  44  side 2    Res =  0.1804E+03
 MRCHDU: Convergence failed at  45  side 2    Res =  0.1424E+03
 MRCHDU: Convergence failed at  46  side 2    Res =  0.1923E+02
 MRCHDU: Convergence failed at  47  side 2    Res =  0.2958E+04
 Side 1  free  transition at x/c =  0.5044   24
 Side 2 forced transition at x/c =  1.0000   47

  21   rms: 0.6977E+00   max: -.7895E+00   U at   47  2   RLX: 0.475
       a = -4.100      CL = -0.6422
      Cm =  0.1145     CD =  0.00324   =>   CDf =  0.00552    CDp = -0.00228

 Side 1  free  transition at x/c =  0.5052   24
 Side 2  free  transition at x/c =  0.0234    9

  22   rms: 0.4427E+00   max: 0.3270E+01   C at    9  2   RLX: 0.346
       a = -4.100      CL = -0.4084
      Cm =  0.0380     CD =  0.00590   =>   CDf =  0.00804    CDp = -0.00214

 Side 1  free  transition at x/c =  0.5050   24
 Side 2  free  transition at x/c =  0.0180    9

  23   rms: 0.2706E+00   max: 0.1287E+01   D at    8  2
       a = -4.100      CL = -0.0147
      Cm = -0.0851     CD =  0.00724   =>   CDf =  0.00731    CDp = -0.00007

 Side 1  free  transition at x/c =  0.5045   24
 Side 2  free  transition at x/c =  0.0162    8

  24   rms: 0.4004E-01   max: -.4503E+00   D at    8  2
       a = -4.100      CL = -0.0047
      Cm = -0.0868     CD =  0.00809   =>   CDf =  0.00593    CDp =  0.00215

 MRCHDU: Convergence failed at   8  side 2    Res =  0.1191E+01
 MRCHDU: Convergence failed at   9  side 2    Res =  0.1916E+01
 MRCHDU: Convergence failed at  10  side 2    Res =  0.1274E+01
 MRCHDU: Convergence failed at  11  side 2    Res =  0.2929E+01
 MRCHDU: Convergence failed at  12  side 2    Res =  0.5082E+02
 MRCHDU: Convergence failed at  13  side 2    Res =  0.1583E+02
 MRCHDU: Convergence failed at  14  side 2    Res =  0.8309E+01
 MRCHDU: Convergence failed at  15  side 2    Res =  0.7034E+01
 MRCHDU: Convergence failed at  16  side 2    Res =  0.5951E+01
 MRCHDU: Convergence failed at  17  side 2    Res =  0.4611E+01
 MRCHDU: Convergence failed at  18  side 2    Res =  0.2482E+01
 MRCHDU: Convergence failed at  19  side 2    Res =  0.4044E+01
 MRCHDU: Convergence failed at  20  side 2    Res =  0.3484E+01
 MRCHDU: Convergence failed at  21  side 2    Res =  0.3066E+01
 MRCHDU: Convergence failed at  22  side 2    Res =  0.3546E+01
 MRCHDU: Convergence failed at  23  side 2    Res =  0.3721E+01
 MRCHDU: Convergence failed at  24  side 2    Res =  0.4391E+01
 MRCHDU: Convergence failed at  25  side 2    Res =  0.4726E+01
 MRCHDU: Convergence failed at  26  side 2    Res =  0.5569E+01
 MRCHDU: Convergence failed at  27  side 2    Res =  0.6185E+01
 MRCHDU: Convergence failed at  28  side 2    Res =  0.9296E+01
 MRCHDU: Convergence failed at  29  side 2    Res =  0.1146E+02
 MRCHDU: Convergence failed at  30  side 2    Res =  0.1777E+02
 MRCHDU: Convergence failed at  31  side 2    Res =  0.3175E+02
 MRCHDU: Convergence failed at  32  side 2    Res =  0.8828E+02
 MRCHDU: Convergence failed at  33  side 2    Res =  0.3333E+03
 MRCHDU: Convergence failed at  34  side 2    Res =  0.3540E+03
 MRCHDU: Convergence failed at  35  side 2    Res =  0.3356E+03
 MRCHDU: Convergence failed at  36  side 2    Res =  0.4745E+03
 MRCHDU: Convergence failed at  37  side 2    Res =  0.7784E+04
 MRCHDU: Convergence failed at  38  side 2    Res =  0.6304E+03
 MRCHDU: Convergence failed at  39  side 2    Res =  0.3157E+02
 MRCHDU: Convergence failed at  40  side 2    Res =  0.2855E+02
 MRCHDU: Convergence failed at  41  side 2    Res =  0.2597E+02
 MRCHDU: Convergence failed at  42  side 2    Res =  0.1239E+02
 MRCHDU: Convergence failed at  43  side 2    Res =  0.9598E+02
 MRCHDU: Convergence failed at  44  side 2    Res =  0.1804E+03
 MRCHDU: Convergence failed at  45  side 2    Res =  0.1424E+03
 MRCHDU: Convergence failed at  46  side 2    Res =  0.1923E+02
 MRCHDU: Convergence failed at  47  side 2    Res =  0.2958E+04
 Side 1  free  transition at x/c =  0.5044   24
 Side 2 forced transition at x/c =  1.0000   47

  25   rms: 0.6977E+00   max: -.7895E+00   U at   47  2   RLX: 0.475
       a = -4.100      CL = -0.6422
      Cm =  0.1145     CD =  0.00324   =>   CDf =  0.00552    CDp = -0.00228

 Side 1  free  transition at x/c =  0.5052   24
 Side 2  free  transition at x/c =  0.0234    9

  26   rms: 0.4427E+00   max: 0.3270E+01   C at    9  2   RLX: 0.346
       a = -4.100      CL = -0.4084
      Cm =  0.0380     CD =  0.00590   =>   CDf =  0.00804    CDp = -0.00214

 Side 1  free  transition at x/c =  0.5050   24
 Side 2  free  transition at x/c =  0.0180    9

  27   rms: 0.2706E+00   max: 0.1287E+01   D at    8  2
       a = -4.100      CL = -0.0147
      Cm = -0.0851     CD =  0.00724   =>   CDf =  0.00731    CDp = -0.00007

 Side 1  free  transition at x/c =  0.5045   24
 Side 2  free  transition at x/c =  0.0162    8

  28   rms: 0.4004E-01   max: -.4503E+00   D at    8  2
       a = -4.100      CL = -0.0047
      Cm = -0.0868     CD =  0.00809   =>   CDf =  0.00593    CDp =  0.00215

 MRCHDU: Convergence failed at   8  side 2    Res =  0.1191E+01
 MRCHDU: Convergence failed at   9  side 2    Res =  0.1916E+01
 MRCHDU: Convergence failed at  10  side 2    Res =  0.1274E+01
 MRCHDU: Convergence failed at  11  side 2    Res =  0.2929E+01
 MRCHDU: Convergence failed at  12  side 2    Res =  0.5082E+02
 MRCHDU: Convergence failed at  13  side 2    Res =  0.1583E+02
 MRCHDU: Convergence failed at  14  side 2    Res =  0.8309E+01
 MRCHDU: Convergence failed at  15  side 2    Res =  0.7034E+01
 MRCHDU: Convergence failed at  16  side 2    Res =  0.5951E+01
 MRCHDU: Convergence failed at  17  side 2    Res =  0.4611E+01
 MRCHDU: Convergence failed at  18  side 2    Res =  0.2482E+01
 MRCHDU: Convergence failed at  19  side 2    Res =  0.4044E+01
 MRCHDU: Convergence failed at  20  side 2    Res =  0.3484E+01
 MRCHDU: Convergence failed at  21  side 2    Res =  0.3066E+01
 MRCHDU: Convergence failed at  22  side 2    Res =  0.3546E+01
 MRCHDU: Convergence failed at  23  side 2    Res =  0.3721E+01
 MRCHDU: Convergence failed at  24  side 2    Res =  0.4391E+01
 MRCHDU: Convergence failed at  25  side 2    Res =  0.4726E+01
 MRCHDU: Convergence failed at  26  side 2    Res =  0.5569E+01
 MRCHDU: Convergence failed at  27  side 2    Res =  0.6185E+01
 MRCHDU: Convergence failed at  28  side 2    Res =  0.9296E+01
 MRCHDU: Convergence failed at  29  side 2    Res =  0.1146E+02
 MRCHDU: Convergence failed at  30  side 2    Res =  0.1777E+02
 MRCHDU: Convergence failed at  31  side 2    Res =  0.3175E+02
 MRCHDU: Convergence failed at  32  side 2    Res =  0.8828E+02
 MRCHDU: Convergence failed at  33  side 2    Res =  0.3333E+03
 MRCHDU: Convergence failed at  34  side 2    Res =  0.3540E+03
 MRCHDU: Convergence failed at  35  side 2    Res =  0.3356E+03
 MRCHDU: Convergence failed at  36  side 2    Res =  0.4745E+03
 MRCHDU: Convergence failed at  37  side 2    Res =  0.7775E+04
 MRCHDU: Convergence failed at  38  side 2    Res =  0.6303E+03
 MRCHDU: Convergence failed at  39  side 2    Res =  0.3157E+02
 MRCHDU: Convergence failed at  40  side 2    Res =  0.2855E+02
 MRCHDU: Convergence failed at  41  side 2    Res =  0.2597E+02
 MRCHDU: Convergence failed at  42  side 2    Res =  0.1239E+02
 MRCHDU: Convergence failed at  43  side 2    Res =  0.9598E+02
 MRCHDU: Convergence failed at  44  side 2    Res =  0.1804E+03
 MRCHDU: Convergence failed at  45  side 2    Res =  0.1424E+03
 MRCHDU: Convergence failed at  46  side 2    Res =  0.1923E+02
 MRCHDU: Convergence failed at  47  side 2    Res =  0.2958E+04
 Side 1  free  transition at x/c =  0.5044   24
 Side 2 forced transition at x/c =  1.0000   47

  29   rms: 0.6977E+00   max: -.7895E+00   U at   47  2   RLX: 0.475
       a = -4.100      CL = -0.6422
      Cm =  0.1145     CD =  0.00324   =>   CDf =  0.00552    CDp = -0.00228

 Side 1  free  transition at x/c =  0.5052   24
 Side 2  free  transition at x/c =  0.0234    9

  30   rms: 0.4427E+00   max: 0.3270E+01   C at    9  2   RLX: 0.346
       a = -4.100      CL = -0.4084
      Cm =  0.0380     CD =  0.00590   =>   CDf =  0.00804    CDp = -0.00214

 Side 1  free  transition at x/c =  0.5050   24
 Side 2  free  transition at x/c =  0.0180    9

  31   rms: 0.2706E+00   max: 0.1287E+01   D at    8  2
       a = -4.100      CL = -0.0147
      Cm = -0.0851     CD =  0.00724   =>   CDf =  0.00731    CDp = -0.00007

 Side 1  free  transition at x/c =  0.5045   24
 Side 2  free  transition at x/c =  0.0162    8

  32   rms: 0.4004E-01   max: -.4503E+00   D at    8  2
       a = -4.100      CL = -0.0047
      Cm = -0.0868     CD =  0.00809   =>   CDf =  0.00593    CDp =  0.00215

 MRCHDU: Convergence failed at   8  side 2    Res =  0.1191E+01
 MRCHDU: Convergence failed at   9  side 2    Res =  0.1916E+01
 MRCHDU: Convergence failed at  10  side 2    Res =  0.1274E+01
 MRCHDU: Convergence failed at  11  side 2    Res =  0.2929E+01
 MRCHDU: Convergence failed at  12  side 2    Res =  0.5082E+02
 MRCHDU: Convergence failed at  13  side 2    Res =  0.1583E+02
 MRCHDU: Convergence failed at  14  side 2    Res =  0.8309E+01
 MRCHDU: Convergence failed at  15  side 2    Res =  0.7034E+01
 MRCHDU: Convergence failed at  16  side 2    Res =  0.5951E+01
 MRCHDU: Convergence failed at  17  side 2    Res =  0.4611E+01
 MRCHDU: Convergence failed at  18  side 2    Res =  0.2482E+01
 MRCHDU: Convergence failed at  19  side 2    Res =  0.4044E+01
 MRCHDU: Convergence failed at  20  side 2    Res =  0.3484E+01
 MRCHDU: Convergence failed at  21  side 2    Res =  0.3066E+01
 MRCHDU: Convergence failed at  22  side 2    Res =  0.3546E+01
 MRCHDU: Convergence failed at  23  side 2    Res =  0.3721E+01
 MRCHDU: Convergence failed at  24  side 2    Res =  0.4391E+01
 MRCHDU: Convergence failed at  25  side 2    Res =  0.4726E+01
 MRCHDU: Convergence failed at  26  side 2    Res =  0.5569E+01
 MRCHDU: Convergence failed at  27  side 2    Res =  0.6185E+01
 MRCHDU: Convergence failed at  28  side 2    Res =  0.9296E+01
 MRCHDU: Convergence failed at  29  side 2    Res =  0.1146E+02
 MRCHDU: Convergence failed at  30  side 2    Res =  0.1777E+02
 MRCHDU: Convergence failed at  31  side 2    Res =  0.3175E+02
 MRCHDU: Convergence failed at  32  side 2    Res =  0.8828E+02
 MRCHDU: Convergence failed at  33  side 2    Res =  0.3333E+03
 MRCHDU: Convergence failed at  34  side 2    Res =  0.3540E+03
 MRCHDU: Convergence failed at  35  side 2    Res =  0.3356E+03
 MRCHDU: Convergence failed at  36  side 2    Res =  0.4746E+03
 MRCHDU: Convergence failed at  37  side 2    Res =  0.7779E+04
 MRCHDU: Convergence failed at  38  side 2    Res =  0.6303E+03
 MRCHDU: Convergence failed at  39  side 2    Res =  0.3157E+02
 MRCHDU: Convergence failed at  40  side 2    Res =  0.2855E+02
 MRCHDU: Convergence failed at  41  side 2    Res =  0.2597E+02
 MRCHDU: Convergence failed at  42  side 2    Res =  0.1239E+02
 MRCHDU: Convergence failed at  43  side 2    Res =  0.9598E+02
 MRCHDU: Convergence failed at  44  side 2    Res =  0.1804E+03
 MRCHDU: Convergence failed at  45  side 2    Res =  0.1424E+03
 MRCHDU: Convergence failed at  46  side 2    Res =  0.1923E+02
 MRCHDU: Convergence failed at  47  side 2    Res =  0.2958E+04
 Side 1  free  transition at x/c =  0.5044   24
 Side 2 forced transition at x/c =  1.0000   47

  33   rms: 0.6977E+00   max: -.7895E+00   U at   47  2   RLX: 0.475
       a = -4.100      CL = -0.6422
      Cm =  0.1145     CD =  0.00324   =>   CDf =  0.00552    CDp = -0.00228

 Side 1  free  transition at x/c =  0.5052   24
 Side 2  free  transition at x/c =  0.0234    9

  34   rms: 0.4427E+00   max: 0.3270E+01   C at    9  2   RLX: 0.346
       a = -4.100      CL = -0.4084
      Cm =  0.0380     CD =  0.00590   =>   CDf =  0.00804    CDp = -0.00214

 Side 1  free  transition at x/c =  0.5050   24
 Side 2  free  transition at x/c =  0.0180    9

  35   rms: 0.2706E+00   max: 0.1287E+01   D at    8  2
       a = -4.100      CL = -0.0147
      Cm = -0.0851     CD =  0.00724   =>   CDf =  0.00731    CDp = -0.00007

 Side 1  free  transition at x/c =  0.5045   24
 Side 2  free  transition at x/c =  0.0162    8

  36   rms: 0.4004E-01   max: -.4503E+00   D at    8  2
       a = -4.100      CL = -0.0047
      Cm = -0.0868     CD =  0.00809   =>   CDf =  0.00593    CDp =  0.00215

 MRCHDU: Convergence failed at   8  side 2    Res =  0.1191E+01
 MRCHDU: Convergence failed at   9  side 2    Res =  0.1916E+01
 MRCHDU: Convergence failed at  10  side 2    Res =  0.1274E+01
 MRCHDU: Convergence failed at  11  side 2    Res =  0.2929E+01
 MRCHDU: Convergence failed at  12  side 2    Res =  0.5082E+02
 MRCHDU: Convergence failed at  13  side 2    Res =  0.1583E+02
 MRCHDU: Convergence failed at  14  side 2    Res =  0.8309E+01
 MRCHDU: Convergence failed at  15  side 2    Res =  0.7034E+01
 MRCHDU: Convergence failed at  16  side 2    Res =  0.5951E+01
 MRCHDU: Convergence failed at  17  side 2    Res =  0.4611E+01
 MRCHDU: Convergence failed at  18  side 2    Res =  0.2482E+01
 MRCHDU: Convergence failed at  19  side 2    Res =  0.4044E+01
 MRCHDU: Convergence failed at  20  side 2    Res =  0.3484E+01
 MRCHDU: Convergence failed at  21  side 2    Res =  0.3066E+01
 MRCHDU: Convergence failed at  22  side 2    Res =  0.3546E+01
 MRCHDU: Convergence failed at  23  side 2    Res =  0.3721E+01
 MRCHDU: Convergence failed at  24  side 2    Res =  0.4391E+01
 MRCHDU: Convergence failed at  25  side 2    Res =  0.4726E+01
 MRCHDU: Convergence failed at  26  side 2    Res =  0.5569E+01
 MRCHDU: Convergence failed at  27  side 2    Res =  0.6185E+01
 MRCHDU: Convergence failed at  28  side 2    Res =  0.9296E+01
 MRCHDU: Convergence failed at  29  side 2    Res =  0.1146E+02
 MRCHDU: Convergence failed at  30  side 2    Res =  0.1777E+02
 MRCHDU: Convergence failed at  31  side 2    Res =  0.3175E+02
 MRCHDU: Convergence failed at  32  side 2    Res =  0.8828E+02
 MRCHDU: Convergence failed at  33  side 2    Res =  0.3334E+03
 MRCHDU: Convergence failed at  34  side 2    Res =  0.3540E+03
 MRCHDU: Convergence failed at  35  side 2    Res =  0.3356E+03
 MRCHDU: Convergence failed at  36  side 2    Res =  0.4744E+03
 MRCHDU: Convergence failed at  37  side 2    Res =  0.7803E+04
 MRCHDU: Convergence failed at  38  side 2    Res =  0.6305E+03
 MRCHDU: Convergence failed at  39  side 2    Res =  0.3157E+02
 MRCHDU: Convergence failed at  40  side 2    Res =  0.2855E+02
 MRCHDU: Convergence failed at  41  side 2    Res =  0.2597E+02
 MRCHDU: Convergence failed at  42  side 2    Res =  0.1239E+02
 MRCHDU: Convergence failed at  43  side 2    Res =  0.9598E+02
 MRCHDU: Convergence failed at  44  side 2    Res =  0.1804E+03
 MRCHDU: Convergence failed at  45  side 2    Res =  0.1424E+03
 MRCHDU: Convergence failed at  46  side 2    Res =  0.1923E+02
 MRCHDU: Convergence failed at  47  side 2    Res =  0.2958E+04
 Side 1  free  transition at x/c =  0.5044   24
 Side 2 forced transition at x/c =  1.0000   47

  37   rms: 0.6977E+00   max: -.7895E+00   U at   47  2   RLX: 0.475
       a = -4.100      CL = -0.6422
      Cm =  0.1145     CD =  0.00324   =>   CDf =  0.00552    CDp = -0.00228

 Side 1  free  transition at x/c =  0.5052   24
 Side 2  free  transition at x/c =  0.0234    9

  38   rms: 0.4427E+00   max: 0.3270E+01   C at    9  2   RLX: 0.346
       a = -4.100      CL = -0.4084
      Cm =  0.0380     CD =  0.00590   =>   CDf =  0.00804    CDp = -0.00214

 Side 1  free  transition at x/c =  0.5050   24
 Side 2  free  transition at x/c =  0.0180    9

  39   rms: 0.2706E+00   max: 0.1287E+01   D at    8  2
       a = -4.100      CL = -0.0147
      Cm = -0.0851     CD =  0.00724   =>   CDf =  0.00731    CDp = -0.00007

 Side 1  free  transition at x/c =  0.5045   24
 Side 2  free  transition at x/c =  0.0162    8

  40   rms: 0.4004E-01   max: -.4503E+00   D at    8  2
       a = -4.100      CL = -0.0047
      Cm = -0.0868     CD =  0.00809   =>   CDf =  0.00593    CDp =  0.00215

 MRCHDU: Convergence failed at   8  side 2    Res =  0.1191E+01
 MRCHDU: Convergence failed at   9  side 2    Res =  0.1916E+01
 MRCHDU: Convergence failed at  10  side 2    Res =  0.1274E+01
 MRCHDU: Convergence failed at  11  side 2    Res =  0.2929E+01
 MRCHDU: Convergence failed at  12  side 2    Res =  0.5082E+02
 MRCHDU: Convergence failed at  13  side 2    Res =  0.1583E+02
 MRCHDU: Convergence failed at  14  side 2    Res =  0.8309E+01
 MRCHDU: Convergence failed at  15  side 2    Res =  0.7034E+01
 MRCHDU: Convergence failed at  16  side 2    Res =  0.5951E+01
 MRCHDU: Convergence failed at  17  side 2    Res =  0.4611E+01
 MRCHDU: Convergence failed at  18  side 2    Res =  0.2482E+01
 MRCHDU: Convergence failed at  19  side 2    Res =  0.4044E+01
 MRCHDU: Convergence failed at  20  side 2    Res =  0.3484E+01
 MRCHDU: Convergence failed at  21  side 2    Res =  0.3066E+01
 MRCHDU: Convergence failed at  22  side 2    Res =  0.3546E+01
 MRCHDU: Convergence failed at  23  side 2    Res =  0.3721E+01
 MRCHDU: Convergence failed at  24  side 2    Res =  0.4391E+01
 MRCHDU: Convergence failed at  25  side 2    Res =  0.4726E+01
 MRCHDU: Convergence failed at  26  side 2    Res =  0.5569E+01
 MRCHDU: Convergence failed at  27  side 2    Res =  0.6185E+01
 MRCHDU: Convergence failed at  28  side 2    Res =  0.9296E+01
 MRCHDU: Convergence failed at  29  side 2    Res =  0.1146E+02
 MRCHDU: Convergence failed at  30  side 2    Res =  0.1777E+02
 MRCHDU: Convergence failed at  31  side 2    Res =  0.3175E+02
 MRCHDU: Convergence failed at  32  side 2    Res =  0.8828E+02
 MRCHDU: Convergence failed at  33  side 2    Res =  0.3333E+03
 MRCHDU: Convergence failed at  34  side 2    Res =  0.3540E+03
 MRCHDU: Convergence failed at  35  side 2    Res =  0.3356E+03
 MRCHDU: Convergence failed at  36  side 2    Res =  0.4745E+03
 MRCHDU: Convergence failed at  37  side 2    Res =  0.7822E+04
 MRCHDU: Convergence failed at  38  side 2    Res =  0.6305E+03
 MRCHDU: Convergence failed at  39  side 2    Res =  0.3157E+02
 MRCHDU: Convergence failed at  40  side 2    Res =  0.2855E+02
 MRCHDU: Convergence failed at  41  side 2    Res =  0.2597E+02
 MRCHDU: Convergence failed at  42  side 2    Res =  0.1239E+02
 MRCHDU: Convergence failed at  43  side 2    Res =  0.9598E+02
 MRCHDU: Convergence failed at  44  side 2    Res =  0.1804E+03
 MRCHDU: Convergence failed at  45  side 2    Res =  0.1424E+03
 MRCHDU: Convergence failed at  46  side 2    Res =  0.1923E+02
 MRCHDU: Convergence failed at  47  side 2    Res =  0.2958E+04
 Side 1  free  transition at x/c =  0.5044   24
 Side 2 forced transition at x/c =  1.0000   47

  41   rms: 0.6977E+00   max: -.7895E+00   U at   47  2   RLX: 0.475
       a = -4.100      CL = -0.6422
      Cm =  0.1145     CD =  0.00324   =>   CDf =  0.00552    CDp = -0.00228

 Side 1  free  transition at x/c =  0.5052   24
 Side 2  free  transition at x/c =  0.0234    9

  42   rms: 0.4427E+00   max: 0.3270E+01   C at    9  2   RLX: 0.346
       a = -4.100      CL = -0.4084
      Cm =  0.0380     CD =  0.00590   =>   CDf =  0.00804    CDp = -0.00214

 Side 1  free  transition at x/c =  0.5050   24
 Side 2  free  transition at x/c =  0.0180    9

  43   rms: 0.2706E+00   max: 0.1287E+01   D at    8  2
       a = -4.100      CL = -0.0147
      Cm = -0.0851     CD =  0.00724   =>   CDf =  0.00731    CDp = -0.00007

 Side 1  free  transition at x/c =  0.5045   24
 Side 2  free  transition at x/c =  0.0162    8

  44   rms: 0.4004E-01   max: -.4503E+00   D at    8  2
       a = -4.100      CL = -0.0047
      Cm = -0.0868     CD =  0.00809   =>   CDf =  0.00593    CDp =  0.00215

 MRCHDU: Convergence failed at   8  side 2    Res =  0.1191E+01
 MRCHDU: Convergence failed at   9  side 2    Res =  0.1916E+01
 MRCHDU: Convergence failed at  10  side 2    Res =  0.1274E+01
 MRCHDU: Convergence failed at  11  side 2    Res =  0.2929E+01
 MRCHDU: Convergence failed at  12  side 2    Res =  0.5082E+02
 MRCHDU: Convergence failed at  13  side 2    Res =  0.1583E+02
 MRCHDU: Convergence failed at  14  side 2    Res =  0.8309E+01
 MRCHDU: Convergence failed at  15  side 2    Res =  0.7034E+01
 MRCHDU: Convergence failed at  16  side 2    Res =  0.5951E+01
 MRCHDU: Convergence failed at  17  side 2    Res =  0.4611E+01
 MRCHDU: Convergence failed at  18  side 2    Res =  0.2482E+01
 MRCHDU: Convergence failed at  19  side 2    Res =  0.4044E+01
 MRCHDU: Convergence failed at  20  side 2    Res =  0.3484E+01
 MRCHDU: Convergence failed at  21  side 2    Res =  0.3066E+01
 MRCHDU: Convergence failed at  22  side 2    Res =  0.3546E+01
 MRCHDU: Convergence failed at  23  side 2    Res =  0.3721E+01
 MRCHDU: Convergence failed at  24  side 2    Res =  0.4391E+01
 MRCHDU: Convergence failed at  25  side 2    Res =  0.4726E+01
 MRCHDU: Convergence failed at  26  side 2    Res =  0.5569E+01
 MRCHDU: Convergence failed at  27  side 2    Res =  0.6185E+01
 MRCHDU: Convergence failed at  28  side 2    Res =  0.9296E+01
 MRCHDU: Convergence failed at  29  side 2    Res =  0.1146E+02
 MRCHDU: Convergence failed at  30  side 2    Res =  0.1777E+02
 MRCHDU: Convergence failed at  31  side 2    Res =  0.3175E+02
 MRCHDU: Convergence failed at  32  side 2    Res =  0.8828E+02
 MRCHDU: Convergence failed at  33  side 2    Res =  0.3333E+03
 MRCHDU: Convergence failed at  34  side 2    Res =  0.3540E+03
 MRCHDU: Convergence failed at  35  side 2    Res =  0.3356E+03
 MRCHDU: Convergence failed at  36  side 2    Res =  0.4744E+03
 MRCHDU: Convergence failed at  37  side 2    Res =  0.7822E+04
 MRCHDU: Convergence failed at  38  side 2    Res =  0.6304E+03
 MRCHDU: Convergence failed at  39  side 2    Res =  0.3157E+02
 MRCHDU: Convergence failed at  40  side 2    Res =  0.2855E+02
 MRCHDU: Convergence failed at  41  side 2    Res =  0.2597E+02
 MRCHDU: Convergence failed at  42  side 2    Res =  0.1239E+02
 MRCHDU: Convergence failed at  43  side 2    Res =  0.9598E+02
 MRCHDU: Convergence failed at  44  side 2    Res =  0.1804E+03
 MRCHDU: Convergence failed at  45  side 2    Res =  0.1424E+03
 MRCHDU: Convergence failed at  46  side 2    Res =  0.1923E+02
 MRCHDU: Convergence failed at  47  side 2    Res =  0.2958E+04
 Side 1  free  transition at x/c =  0.5044   24
 Side 2 forced transition at x/c =  1.0000   47

  45   rms: 0.6977E+00   max: -.7895E+00   U at   47  2   RLX: 0.475
       a = -4.100      CL = -0.6422
      Cm =  0.1145     CD =  0.00324   =>   CDf =  0.00552    CDp = -0.00228

 Side 1  free  transition at x/c =  0.5052   24
 Side 2  free  transition at x/c =  0.0234    9

  46   rms: 0.4427E+00   max: 0.3270E+01   C at    9  2   RLX: 0.346
       a = -4.100      CL = -0.4084
      Cm =  0.0380     CD =  0.00590   =>   CDf =  0.00804    CDp = -0.00214

 Side 1  free  transition at x/c =  0.5050   24
 Side 2  free  transition at x/c =  0.0180    9

  47   rms: 0.2706E+00   max: 0.1287E+01   D at    8  2
       a = -4.100      CL = -0.0147
      Cm = -0.0851     CD =  0.00724   =>   CDf =  0.00731    CDp = -0.00007

 Side 1  free  transition at x/c =  0.5045   24
 Side 2  free  transition at x/c =  0.0162    8

  48   rms: 0.4004E-01   max: -.4503E+00   D at    8  2
       a = -4.100      CL = -0.0047
      Cm = -0.0868     CD =  0.00809   =>   CDf =  0.00593    CDp =  0.00215

 MRCHDU: Convergence failed at   8  side 2    Res =  0.1191E+01
 MRCHDU: Convergence failed at   9  side 2    Res =  0.1917E+01
 MRCHDU: Convergence failed at  10  side 2    Res =  0.1274E+01
 MRCHDU: Convergence failed at  11  side 2    Res =  0.2929E+01
 MRCHDU: Convergence failed at  12  side 2    Res =  0.5082E+02
 MRCHDU: Convergence failed at  13  side 2    Res =  0.1583E+02
 MRCHDU: Convergence failed at  14  side 2    Res =  0.8309E+01
 MRCHDU: Convergence failed at  15  side 2    Res =  0.7034E+01
 MRCHDU: Convergence failed at  16  side 2    Res =  0.5951E+01
 MRCHDU: Convergence failed at  17  side 2    Res =  0.4611E+01
 MRCHDU: Convergence failed at  18  side 2    Res =  0.2482E+01
 MRCHDU: Convergence failed at  19  side 2    Res =  0.4044E+01
 MRCHDU: Convergence failed at  20  side 2    Res =  0.3484E+01
 MRCHDU: Convergence failed at  21  side 2    Res =  0.3066E+01
 MRCHDU: Convergence failed at  22  side 2    Res =  0.3546E+01
 MRCHDU: Convergence failed at  23  side 2    Res =  0.3721E+01
 MRCHDU: Convergence failed at  24  side 2    Res =  0.4391E+01
 MRCHDU: Convergence failed at  25  side 2    Res =  0.4726E+01
 MRCHDU: Convergence failed at  26  side 2    Res =  0.5569E+01
 MRCHDU: Convergence failed at  27  side 2    Res =  0.6185E+01
 MRCHDU: Convergence failed at  28  side 2    Res =  0.9296E+01
 MRCHDU: Convergence failed at  29  side 2    Res =  0.1146E+02
 MRCHDU: Convergence failed at  30  side 2    Res =  0.1777E+02
 MRCHDU: Convergence failed at  31  side 2    Res =  0.3175E+02
 MRCHDU: Convergence failed at  32  side 2    Res =  0.8828E+02
 MRCHDU: Convergence failed at  33  side 2    Res =  0.3333E+03
 MRCHDU: Convergence failed at  34  side 2    Res =  0.3540E+03
 MRCHDU: Convergence failed at  35  side 2    Res =  0.3356E+03
 MRCHDU: Convergence failed at  36  side 2    Res =  0.4745E+03
 MRCHDU: Convergence failed at  37  side 2    Res =  0.7802E+04
 MRCHDU: Convergence failed at  38  side 2    Res =  0.6303E+03
 MRCHDU: Convergence failed at  39  side 2    Res =  0.3157E+02
 MRCHDU: Convergence failed at  40  side 2    Res =  0.2855E+02
 MRCHDU: Convergence failed at  41  side 2    Res =  0.2597E+02
 MRCHDU: Convergence failed at  42  side 2    Res =  0.1239E+02
 MRCHDU: Convergence failed at  43  side 2    Res =  0.9598E+02
 MRCHDU: Convergence failed at  44  side 2    Res =  0.1804E+03
 MRCHDU: Convergence failed at  45  side 2    Res =  0.1424E+03
 MRCHDU: Convergence failed at  46  side 2    Res =  0.1923E+02
 MRCHDU: Convergence failed at  47  side 2    Res =  0.2958E+04
 Side 1  free  transition at x/c =  0.5044   24
 Side 2 forced transition at x/c =  1.0000   47

  49   rms: 0.6977E+00   max: -.7895E+00   U at   47  2   RLX: 0.475
       a = -4.100      CL = -0.6422
      Cm =  0.1145     CD =  0.00324   =>   CDf =  0.00552    CDp = -0.00228

 Side 1  free  transition at x/c =  0.5052   24
 Side 2  free  transition at x/c =  0.0234    9

  50   rms: 0.4427E+00   max: 0.3270E+01   C at    9  2   RLX: 0.346
       a = -4.100      CL = -0.4084
      Cm =  0.0380     CD =  0.00590   =>   CDf =  0.00804    CDp = -0.00214

 Side 1  free  transition at x/c =  0.5050   24
 Side 2  free  transition at x/c =  0.0180    9

  51   rms: 0.2706E+00   max: 0.1287E+01   D at    8  2
       a = -4.100      CL = -0.0147
      Cm = -0.0851     CD =  0.00724   =>   CDf =  0.00731    CDp = -0.00007

 Side 1  free  transition at x/c =  0.5045   24
 Side 2  free  transition at x/c =  0.0162    8

  52   rms: 0.4004E-01   max: -.4503E+00   D at    8  2
       a = -4.100      CL = -0.0047
      Cm = -0.0868     CD =  0.00809   =>   CDf =  0.00593    CDp =  0.00215

 MRCHDU: Convergence failed at   8  side 2    Res =  0.1191E+01
 MRCHDU: Convergence failed at   9  side 2    Res =  0.1917E+01
 MRCHDU: Convergence failed at  10  side 2    Res =  0.1274E+01
 MRCHDU: Convergence failed at  11  side 2    Res =  0.2929E+01
 MRCHDU: Convergence failed at  12  side 2    Res =  0.5082E+02
 MRCHDU: Convergence failed at  13  side 2    Res =  0.1583E+02
 MRCHDU: Convergence failed at  14  side 2    Res =  0.8309E+01
 MRCHDU: Convergence failed at  15  side 2    Res =  0.7034E+01
 MRCHDU: Convergence failed at  16  side 2    Res =  0.5951E+01
 MRCHDU: Convergence failed at  17  side 2    Res =  0.4611E+01
 MRCHDU: Convergence failed at  18  side 2    Res =  0.2482E+01
 MRCHDU: Convergence failed at  19  side 2    Res =  0.4044E+01
 MRCHDU: Convergence failed at  20  side 2    Res =  0.3484E+01
 MRCHDU: Convergence failed at  21  side 2    Res =  0.3066E+01
 MRCHDU: Convergence failed at  22  side 2    Res =  0.3546E+01
 MRCHDU: Convergence failed at  23  side 2    Res =  0.3721E+01
 MRCHDU: Convergence failed at  24  side 2    Res =  0.4391E+01
 MRCHDU: Convergence failed at  25  side 2    Res =  0.4726E+01
 MRCHDU: Convergence failed at  26  side 2    Res =  0.5569E+01
 MRCHDU: Convergence failed at  27  side 2    Res =  0.6185E+01
 MRCHDU: Convergence failed at  28  side 2    Res =  0.9296E+01
 MRCHDU: Convergence failed at  29  side 2    Res =  0.1146E+02
 MRCHDU: Convergence failed at  30  side 2    Res =  0.1777E+02
 MRCHDU: Convergence failed at  31  side 2    Res =  0.3175E+02
 MRCHDU: Convergence failed at  32  side 2    Res =  0.8829E+02
 MRCHDU: Convergence failed at  33  side 2    Res =  0.3334E+03
 MRCHDU: Convergence failed at  34  side 2    Res =  0.3540E+03
 MRCHDU: Convergence failed at  35  side 2    Res =  0.3356E+03
 MRCHDU: Convergence failed at  36  side 2    Res =  0.4744E+03
 MRCHDU: Convergence failed at  37  side 2    Res =  0.7817E+04
 MRCHDU: Convergence failed at  38  side 2    Res =  0.6306E+03
 MRCHDU: Convergence failed at  39  side 2    Res =  0.3157E+02
 MRCHDU: Convergence failed at  40  side 2    Res =  0.2855E+02
 MRCHDU: Convergence failed at  41  side 2    Res =  0.2597E+02
 MRCHDU: Convergence failed at  42  side 2    Res =  0.1239E+02
 MRCHDU: Convergence failed at  43  side 2    Res =  0.9598E+02
 MRCHDU: Convergence failed at  44  side 2    Res =  0.1804E+03
 MRCHDU: Convergence failed at  45  side 2    Res =  0.1424E+03
 MRCHDU: Convergence failed at  46  side 2    Res =  0.1923E+02
 MRCHDU: Convergence failed at  47  side 2    Res =  0.2958E+04
 Side 1  free  transition at x/c =  0.5044   24
 Side 2 forced transition at x/c =  1.0000   47

  53   rms: 0.6977E+00   max: -.7895E+00   U at   47  2   RLX: 0.475
       a = -4.100      CL = -0.6422
      Cm =  0.1145     CD =  0.00324   =>   CDf =  0.00552    CDp = -0.00228

 Side 1  free  transition at x/c =  0.5052   24
 Side 2  free  transition at x/c =  0.0234    9

  54   rms: 0.4427E+00   max: 0.3270E+01   C at    9  2   RLX: 0.346
       a = -4.100      CL = -0.4084
      Cm =  0.0380     CD =  0.00590   =>   CDf =  0.00804    CDp = -0.00214

 Side 1  free  transition at x/c =  0.5050   24
 Side 2  free  transition at x/c =  0.0180    9

  55   rms: 0.2706E+00   max: 0.1287E+01   D at    8  2
       a = -4.100      CL = -0.0147
      Cm = -0.0851     CD =  0.00724   =>   CDf =  0.00731    CDp = -0.00007

 Side 1  free  transition at x/c =  0.5045   24
 Side 2  free  transition at x/c =  0.0162    8

  56   rms: 0.4004E-01   max: -.4503E+00   D at    8  2
       a = -4.100      CL = -0.0047
      Cm = -0.0868     CD =  0.00809   =>   CDf =  0.00593    CDp =  0.00215

 MRCHDU: Convergence failed at   8  side 2    Res =  0.1191E+01
 MRCHDU: Convergence failed at   9  side 2    Res =  0.1916E+01
 MRCHDU: Convergence failed at  10  side 2    Res =  0.1274E+01
 MRCHDU: Convergence failed at  11  side 2    Res =  0.2929E+01
 MRCHDU: Convergence failed at  12  side 2    Res =  0.5082E+02
 MRCHDU: Convergence failed at  13  side 2    Res =  0.1583E+02
 MRCHDU: Convergence failed at  14  side 2    Res =  0.8309E+01
 MRCHDU: Convergence failed at  15  side 2    Res =  0.7034E+01
 MRCHDU: Convergence failed at  16  side 2    Res =  0.5951E+01
 MRCHDU: Convergence failed at  17  side 2    Res =  0.4611E+01
 MRCHDU: Convergence failed at  18  side 2    Res =  0.2482E+01
 MRCHDU: Convergence failed at  19  side 2    Res =  0.4044E+01
 MRCHDU: Convergence failed at  20  side 2    Res =  0.3484E+01
 MRCHDU: Convergence failed at  21  side 2    Res =  0.3066E+01
 MRCHDU: Convergence failed at  22  side 2    Res =  0.3546E+01
 MRCHDU: Convergence failed at  23  side 2    Res =  0.3721E+01
 MRCHDU: Convergence failed at  24  side 2    Res =  0.4391E+01
 MRCHDU: Convergence failed at  25  side 2    Res =  0.4726E+01
 MRCHDU: Convergence failed at  26  side 2    Res =  0.5569E+01
 MRCHDU: Convergence failed at  27  side 2    Res =  0.6185E+01
 MRCHDU: Convergence failed at  28  side 2    Res =  0.9296E+01
 MRCHDU: Convergence failed at  29  side 2    Res =  0.1146E+02
 MRCHDU: Convergence failed at  30  side 2    Res =  0.1777E+02
 MRCHDU: Convergence failed at  31  side 2    Res =  0.3175E+02
 MRCHDU: Convergence failed at  32  side 2    Res =  0.8829E+02
 MRCHDU: Convergence failed at  33  side 2    Res =  0.3334E+03
 MRCHDU: Convergence failed at  34  side 2    Res =  0.3540E+03
 MRCHDU: Convergence failed at  35  side 2    Res =  0.3356E+03
 MRCHDU: Convergence failed at  36  side 2    Res =  0.4744E+03
 MRCHDU: Convergence failed at  37  side 2    Res =  0.7822E+04
 MRCHDU: Convergence failed at  38  side 2    Res =  0.6306E+03
 MRCHDU: Convergence failed at  39  side 2    Res =  0.3157E+02
 MRCHDU: Convergence failed at  40  side 2    Res =  0.2855E+02
 MRCHDU: Convergence failed at  41  side 2    Res =  0.2597E+02
 MRCHDU: Convergence failed at  42  side 2    Res =  0.1239E+02
 MRCHDU: Convergence failed at  43  side 2    Res =  0.9598E+02
 MRCHDU: Convergence failed at  44  side 2    Res =  0.1804E+03
 MRCHDU: Convergence failed at  45  side 2    Res =  0.1424E+03
 MRCHDU: Convergence failed at  46  side 2    Res =  0.1923E+02
 MRCHDU: Convergence failed at  47  side 2    Res =  0.2958E+04
 Side 1  free  transition at x/c =  0.5044   24
 Side 2 forced transition at x/c =  1.0000   47

  57   rms: 0.6977E+00   max: -.7895E+00   U at   47  2   RLX: 0.475
       a = -4.100      CL = -0.6422
      Cm =  0.1145     CD =  0.00324   =>   CDf =  0.00552    CDp = -0.00228

 Side 1  free  transition at x/c =  0.5052   24
 Side 2  free  transition at x/c =  0.0234    9

  58   rms: 0.4427E+00   max: 0.3270E+01   C at    9  2   RLX: 0.346
       a = -4.100      CL = -0.4084
      Cm =  0.0380     CD =  0.00590   =>   CDf =  0.00804    CDp = -0.00214

 Side 1  free  transition at x/c =  0.5050   24
 Side 2  free  transition at x/c =  0.0180    9

  59   rms: 0.2706E+00   max: 0.1287E+01   D at    8  2
       a = -4.100      CL = -0.0147
      Cm = -0.0851     CD =  0.00724   =>   CDf =  0.00731    CDp = -0.00007

 Side 1  free  transition at x/c =  0.5045   24
 Side 2  free  transition at x/c =  0.0162    8

  60   rms: 0.4004E-01   max: -.4503E+00   D at    8  2
       a = -4.100      CL = -0.0047
[...]

 Side 1  free  transition at x/c =  0.0039   10
 Side 2 forced transition at x/c =  1.0000   38

  83   rms: 0.8837E-01   max: -.1037E+01   D at   10  1   RLX: 0.482
       a = 14.900      CL =  1.4508
      Cm = -0.0538     CD =  0.05507   =>   CDf =  0.00476    CDp =  0.05031

 Side 1  free  transition at x/c =  0.0033   10
 Side 2 forced transition at x/c =  1.0000   38

  84   rms: 0.4253E-01   max: -.5979E+00   D at   10  1   RLX: 0.836
       a = 14.900      CL =  1.4388
      Cm = -0.0535     CD =  0.05627   =>   CDf =  0.00485    CDp =  0.05141

 Side 1  free  transition at x/c =  0.0023   10
 Side 2 forced transition at x/c =  1.0000   38

  85   rms: 0.3246E-01   max: -.3784E+00   D at   10  1
       a = 14.900      CL =  1.4315
      Cm = -0.0530     CD =  0.05694   =>   CDf =  0.00491    CDp =  0.05203

 Side 1  free  transition at x/c =  0.0013   10
 Side 2 forced transition at x/c =  1.0000   38

  86   rms: 0.7044E-01   max: -.7809E+00   D at    9  1   RLX: 0.640
       a = 14.900      CL =  1.4412
      Cm = -0.0531     CD =  0.05584   =>   CDf =  0.00490    CDp =  0.05094

 Side 1  free  transition at x/c =  0.0039   10
 Side 2 forced transition at x/c =  1.0000   38

  87   rms: 0.8837E-01   max: -.1037E+01   D at   10  1   RLX: 0.482
       a = 14.900      CL =  1.4508
      Cm = -0.0538     CD =  0.05507   =>   CDf =  0.00476    CDp =  0.05031

 Side 1  free  transition at x/c =  0.0033   10
 Side 2 forced transition at x/c =  1.0000   38

  88   rms: 0.4253E-01   max: -.5979E+00   D at   10  1   RLX: 0.836
       a = 14.900      CL =  1.4388
      Cm = -0.0535     CD =  0.05627   =>   CDf =  0.00485    CDp =  0.05141

 Side 1  free  transition at x/c =  0.0023   10
 Side 2 forced transition at x/c =  1.0000   38

  89   rms: 0.3246E-01   max: -.3784E+00   D at   10  1
       a = 14.900      CL =  1.4315
      Cm = -0.0530     CD =  0.05694   =>   CDf =  0.00491    CDp =  0.05203

 Side 1  free  transition at x/c =  0.0013   10
 Side 2 forced transition at x/c =  1.0000   38

  90   rms: 0.7044E-01   max: -.7809E+00   D at    9  1   RLX: 0.640
       a = 14.900      CL =  1.4412
      Cm = -0.0531     CD =  0.05584   =>   CDf =  0.00490    CDp =  0.05094

 Side 1  free  transition at x/c =  0.0039   10
 Side 2 forced transition at x/c =  1.0000   38

  91   rms: 0.8837E-01   max: -.1037E+01   D at   10  1   RLX: 0.482
       a = 14.900      CL =  1.4508
      Cm = -0.0538     CD =  0.05507   =>   CDf =  0.00476    CDp =  0.05031

 Side 1  free  transition at x/c =  0.0033   10
 Side 2 forced transition at x/c =  1.0000   38

  92   rms: 0.4253E-01   max: -.5979E+00   D at   10  1   RLX: 0.836
       a = 14.900      CL =  1.4388
      Cm = -0.0535     CD =  0.05627   =>   CDf =  0.00485    CDp =  0.05141

 Side 1  free  transition at x/c =  0.0023   10
 Side 2 forced transition at x/c =  1.0000   38

  93   rms: 0.3246E-01   max: -.3784E+00   D at   10  1
       a = 14.900      CL =  1.4315
      Cm = -0.0530     CD =  0.05694   =>   CDf =  0.00491    CDp =  0.05203

 Side 1  free  transition at x/c =  0.0013   10
 Side 2 forced transition at x/c =  1.0000   38

  94   rms: 0.7044E-01   max: -.7809E+00   D at    9  1   RLX: 0.640
       a = 14.900      CL =  1.4412
      Cm = -0.0531     CD =  0.05584   =>   CDf =  0.00490    CDp =  0.05094

 Side 1  free  transition at x/c =  0.0039   10
 Side 2 forced transition at x/c =  1.0000   38

  95   rms: 0.8837E-01   max: -.1037E+01   D at   10  1   RLX: 0.482
       a = 14.900      CL =  1.4508
      Cm = -0.0538     CD =  0.05507   =>   CDf =  0.00476    CDp =  0.05031

 Side 1  free  transition at x/c =  0.0033   10
 Side 2 forced transition at x/c =  1.0000   38

  96   rms: 0.4253E-01   max: -.5979E+00   D at   10  1   RLX: 0.836
       a = 14.900      CL =  1.4388
      Cm = -0.0535     CD =  0.05627   =>   CDf =  0.00485    CDp =  0.05141

 Side 1  free  transition at x/c =  0.0023   10
 Side 2 forced transition at x/c =  1.0000   38

  97   rms: 0.3246E-01   max: -.3784E+00   D at   10  1
       a = 14.900      CL =  1.4315
      Cm = -0.0530     CD =  0.05694   =>   CDf =  0.00491    CDp =  0.05203

 Side 1  free  transition at x/c =  0.0013   10
 Side 2 forced transition at x/c =  1.0000   38

  98   rms: 0.7044E-01   max: -.7809E+00   D at    9  1   RLX: 0.640
       a = 14.900      CL =  1.4412
      Cm = -0.0531     CD =  0.05584   =>   CDf =  0.00490    CDp =  0.05094

 Side 1  free  transition at x/c =  0.0039   10
 Side 2 forced transition at x/c =  1.0000   38

  99   rms: 0.8837E-01   max: -.1037E+01   D at   10  1   RLX: 0.482
       a = 14.900      CL =  1.4508
      Cm = -0.0538     CD =  0.05507   =>   CDf =  0.00476    CDp =  0.05031

 Side 1  free  transition at x/c =  0.0033   10
 Side 2 forced transition at x/c =  1.0000   38

 100   rms: 0.4253E-01   max: -.5979E+00   D at   10  1   RLX: 0.836
       a = 14.900      CL =  1.4388
      Cm = -0.0535     CD =  0.05627   =>   CDf =  0.00485    CDp =  0.05141
 VISCAL:  Convergence failed

.OPERva   c>   BLs will be initialized on next point

.OPERva   c>  
Enter angle of attack (deg)   r>   Calculating wake trajectory ...
 Calculating source influence matrix ...

 Solving BL system ...

 Initializing BL ...
    side            1  ...
 MRCHUE: Inverse mode at  11     Hk =  17.171
 MRCHUE: Inverse mode at  12     Hk =   2.500
 MRCHUE: Convergence failed at  12  side 1    Res =  0.9257E-01
 MRCHUE: Inverse mode at  13     Hk =   2.500
 MRCHUE: Inverse mode at  38     Hk =   2.500
 MRCHUE: Inverse mode at  39     Hk =   2.500
 MRCHUE: Inverse mode at  40     Hk =   2.500
 MRCHUE: Inverse mode at  41     Hk =   2.500
 MRCHUE: Inverse mode at  42     Hk =   2.500
 MRCHUE: Inverse mode at  43     Hk =   2.500
 MRCHUE: Inverse mode at  44     Hk =   2.500
 MRCHUE: Inverse mode at  45     Hk =   2.500
 MRCHUE: Inverse mode at  46     Hk =   2.500
 MRCHUE: Inverse mode at  47     Hk =   2.500
 MRCHUE: Inverse mode at  48     Hk =   2.500
 MRCHUE: Inverse mode at  49     Hk =   2.500
 MRCHUE: Convergence failed at  50  side 1    Res =  0.7427E+01
 MRCHUE: Inverse mode at  51     Hk =   2.500
 MRCHUE: Convergence failed at  52  side 1    Res =  0.8786E+01
 MRCHUE: Convergence failed at  53  side 1    Res =  0.5390E+01
    side            2  ...
 MRCHUE: Inverse mode at  36     Hk =   2.967

 MRCHDU: Convergence failed at  50  side 1    Res =  0.2152E+01
 MRCHDU: Convergence failed at  51  side 1    Res =  0.2132E+01
 MRCHDU: Convergence failed at  52  side 1    Res =  0.5070E+01
 MRCHDU: Convergence failed at  53  side 1    Res =  0.1670E+02
 Side 1  free  transition at x/c =  0.0011   11
 Side 2 forced transition at x/c =  1.0000   36

   1   rms: 0.1873E+01   max: -.1061E+02   C at   36  2   RLX: 0.047
       a = 15.000      CL =  2.3949
      Cm = -0.2134     CD =  0.00500   =>   CDf =  0.00576    CDp = -0.00076

 Side 1  free  transition at x/c =  0.0011   11
 Side 2 forced transition at x/c =  1.0000   36
 idif Ue xi dudx           1  0.12610352      1.79105997E-02   7.0407200    
 Uenew xinew           2  2.05213553E-03  2.91466713E-04

   2   rms: 0.8064E+00   max: 0.3775E+01   D at   40  2   RLX: 0.158
       a = 15.000      CL =  2.3334
      Cm = -0.1988     CD =  0.00693   =>   CDf =  0.00635    CDp =  0.00058

 Side 1  free  transition at x/c =  0.0011   10
 Side 2 forced transition at x/c =  1.0000   37

   3   rms: 0.1179E+01   max: -.7552E+01   D at    2  2   RLX: 0.066
       a = 15.000      CL =  2.3032
      Cm = -0.1954     CD =  0.00839   =>   CDf =  0.00549    CDp =  0.00290

 Side 1  free  transition at x/c =  0.0011   10
 Side 2 forced transition at x/c =  1.0000   37

   4   rms: 0.4199E+02   max: -.1331E+03   D at   13  1   RLX: 0.004
       a = 15.000      CL =  2.3132
      Cm = -0.1832     CD =  0.00625   =>   CDf =  0.00534    CDp =  0.00091

 Side 1  free  transition at x/c =  0.0011   10
 Side 2 forced transition at x/c =  1.0000   37

   5   rms: 0.7066E+00   max: 0.3145E+01   D at   43  2   RLX: 0.214
       a = 15.000      CL =  2.2414
      Cm = -0.1773     CD =  0.00969   =>   CDf =  0.00577    CDp =  0.00392

 Side 1  free  transition at x/c =  0.0011   10
 Side 2 forced transition at x/c =  1.0000   37

   6   rms: 0.3257E+01   max: -.1527E+02   D at   13  1   RLX: 0.033
       a = 15.000      CL =  2.2619
      Cm = -0.1763     CD =  0.00879   =>   CDf =  0.00556    CDp =  0.00323

 Side 1  free  transition at x/c =  0.0011   10
 Side 2 forced transition at x/c =  1.0000   37

   7   rms: 0.6629E+00   max: 0.2661E+01   D at   44  2   RLX: 0.333
       a = 15.000      CL =  2.1096
      Cm = -0.1480     CD =  0.01374   =>   CDf =  0.00587    CDp =  0.00787

 Side 1  free  transition at x/c =  0.0011   10
 Side 2 forced transition at x/c =  1.0000   37

   8   rms: 0.6598E+00   max: -.4342E+01   D at   13  1   RLX: 0.115
       a = 15.000      CL =  2.0956
      Cm = -0.1460     CD =  0.01426   =>   CDf =  0.00552    CDp =  0.00874

 Side 1  free  transition at x/c =  0.0011   10
 Side 2 forced transition at x/c =  1.0000   37
 idif Ue xi dudx           1  0.13453105      1.58660412E-02   8.4791822    
 Uenew xinew           2  1.63749166E-04  1.93119049E-05

   9   rms: 0.1756E+01   max: 0.5680E+01   D at   46  1   RLX: 0.264
       a = 15.000      CL =  1.8481
      Cm = -0.1281     CD =  0.02656   =>   CDf =  0.00651    CDp =  0.02004

 MRCHDU: Convergence failed at  46  side 2    Res =  0.2210E+01
 Side 1  free  transition at x/c =  0.0011    9
 Side 2 forced transition at x/c =  1.0000   38

  10   rms: 0.3777E+01   max: -.4889E+02   T at    2  2   RLX: 0.010
       a = 15.000      CL =  1.8347
      Cm = -0.1189     CD =  0.03209   =>   CDf =  0.00492    CDp =  0.02716

 Side 1  free  transition at x/c =  0.0011    9
 Side 2 forced transition at x/c =  1.0000   38

  11   rms: 0.3728E+00   max: -.2125E+01   D at   12  1   RLX: 0.235
       a = 15.000      CL =  1.7719
      Cm = -0.1063     CD =  0.03675   =>   CDf =  0.00493    CDp =  0.03182

 MRCHDU: Convergence failed at  10  side 1    Res =  0.3742E+02
 Side 1  free  transition at x/c =  0.0065   11
 Side 2 forced transition at x/c =  1.0000   38

  12   rms: 0.4129E+00   max: -.2671E+01   D at   12  1   RLX: 0.187
       a = 15.000      CL =  1.7814
      Cm = -0.1039     CD =  0.03712   =>   CDf =  0.00474    CDp =  0.03238

 MRCHDU: Convergence failed at  11  side 1    Res =  0.4437E+01
 MRCHDU: Convergence failed at  12  side 1    Res =  0.2287E+01
 MRCHDU: Convergence failed at  13  side 1    Res =  0.5623E+01
 MRCHDU: Convergence failed at  14  side 1    Res =  0.5821E+01
 MRCHDU: Convergence failed at  15  side 1    Res =  0.5515E+01
 MRCHDU: Convergence failed at  16  side 1    Res =  0.3875E+01
 MRCHDU: Convergence failed at  17  side 1    Res =  0.4750E+01
 MRCHDU: Convergence failed at  18  side 1    Res =  0.5542E+01
 MRCHDU: Convergence failed at  19  side 1    Res =  0.5619E+01
 MRCHDU: Convergence failed at  20  side 1    Res =  0.6540E+01
 MRCHDU: Convergence failed at  21  side 1    Res =  0.6924E+01
 MRCHDU: Convergence failed at  22  side 1    Res =  0.7384E+01
 MRCHDU: Convergence failed at  23  side 1    Res =  0.7774E+01
 MRCHDU: Convergence failed at  24  side 1    Res =  0.8456E+01
 MRCHDU: Convergence failed at  25  side 1    Res =  0.8612E+01
 MRCHDU: Convergence failed at  26  side 1    Res =  0.1040E+02
 MRCHDU: Convergence failed at  27  side 1    Res =  0.1263E+02
 MRCHDU: Convergence failed at  28  side 1    Res =  0.3026E+02
 MRCHDU: Convergence failed at  29  side 1    Res =  0.1241E+03
 MRCHDU: Convergence failed at  30  side 1    Res =  0.3005E+02
 MRCHDU: Convergence failed at  31  side 1    Res =  0.1699E+02
 MRCHDU: Convergence failed at  32  side 1    Res =  0.1391E+02
 MRCHDU: Convergence failed at  33  side 1    Res =  0.4855E+02
 MRCHDU: Convergence failed at  34  side 1    Res =  0.3194E+02
 MRCHDU: Convergence failed at  35  side 1    Res =  0.2972E+02
 MRCHDU: Convergence failed at  36  side 1    Res =  0.2622E+02
 MRCHDU: Convergence failed at  37  side 1    Res =  0.2229E+02
 MRCHDU: Convergence failed at  38  side 1    Res =  0.1948E+02
 MRCHDU: Convergence failed at  39  side 1    Res =  0.1745E+02
 MRCHDU: Convergence failed at  40  side 1    Res =  0.1592E+02
 MRCHDU: Convergence failed at  41  side 1    Res =  0.1474E+02
 MRCHDU: Convergence failed at  42  side 1    Res =  0.1382E+02
 MRCHDU: Convergence failed at  43  side 1    Res =  0.1310E+02
 MRCHDU: Convergence failed at  44  side 1    Res =  0.1255E+02
 MRCHDU: Convergence failed at  45  side 1    Res =  0.1228E+02
 MRCHDU: Convergence failed at  46  side 1    Res =  0.1266E+02
 MRCHDU: Convergence failed at  47  side 1    Res =  0.1181E+02
 MRCHDU: Convergence failed at  48  side 1    Res =  0.1119E+02
 MRCHDU: Convergence failed at  49  side 1    Res =  0.1075E+02
 MRCHDU: Convergence failed at  50  side 1    Res =  0.1043E+02
 MRCHDU: Convergence failed at  51  side 1    Res =  0.9288E+03
 MRCHDU: Convergence failed at  45  side 2    Res =  0.2762E+02
 MRCHDU: Convergence failed at  46  side 2    Res =  0.2507E+02
 MRCHDU: Convergence failed at  47  side 2    Res =  0.5749E-01
 Side 1 forced transition at x/c =  1.0000   51
 Side 2 forced transition at x/c =  1.0000   38

  13   rms: 0.1934E+01   max: -.2229E+01   U at   51  1   RLX: 0.168
       a = 15.000      CL =  6.6096
      Cm = -1.5464     CD =  0.00082   =>   CDf =  0.00691    CDp = -0.00609

 Side 1  free  transition at x/c =  0.0101   13
 Side 2 forced transition at x/c =  1.0000   37

  14   rms: 0.1606E+01   max: -.1786E+01   U at   52  1   RLX: 0.115
       a = 15.000      CL =  5.9607
      Cm = -1.3211     CD =  0.00414   =>   CDf =  0.02027    CDp = -0.01613

 Side 1  free  transition at x/c =  0.0043   11
 Side 2 forced transition at x/c =  1.0000   37

  15   rms: 0.1517E+01   max: 0.1128E+02   C at   11  1   RLX: 0.133
       a = 15.000      CL =  5.3477
      Cm = -1.1111     CD =  0.00439   =>   CDf =  0.01842    CDp = -0.01403

 Side 1  free  transition at x/c =  0.0035   11
 Side 2 forced transition at x/c =  1.0000   37

  16   rms: 0.1250E+01   max: 0.1738E+01   T at   42  2   RLX: 0.161
       a = 15.000      CL =  4.7416
      Cm = -0.9077     CD =  0.00487   =>   CDf =  0.01651    CDp = -0.01165

 Side 1  free  transition at x/c =  0.0028   11
 Side 2 forced transition at x/c =  1.0000   37

  17   rms: 0.1060E+01   max: 0.1818E+01   T at   40  2   RLX: 0.198
       a = 15.000      CL =  4.1531
      Cm = -0.7151     CD =  0.00540   =>   CDf =  0.01460    CDp = -0.00920

 Side 1  free  transition at x/c =  0.0023   11
 Side 2 forced transition at x/c =  1.0000   37

  18   rms: 0.8858E+00   max: 0.1128E+01   D at   38  2   RLX: 0.253
       a = 15.000      CL =  3.5830
      Cm = -0.5349     CD =  0.00642   =>   CDf =  0.01271    CDp = -0.00628

 Side 1  free  transition at x/c =  0.0013   11
 Side 2 forced transition at x/c =  1.0000   37

  19   rms: 0.7124E+00   max: 0.1141E+01   D at   38  2   RLX: 0.229
       a = 15.000      CL =  3.2082
      Cm = -0.4216     CD =  0.00780   =>   CDf =  0.01081    CDp = -0.00302

 Side 1  free  transition at x/c =  0.0038   11
 Side 2 forced transition at x/c =  1.0000   37

  20   rms: 0.5905E+00   max: 0.1205E+01   D at   43  2   RLX: 0.363
       a = 15.000      CL =  2.7541
      Cm = -0.2899     CD =  0.01023   =>   CDf =  0.00935    CDp =  0.00088

 Side 1  free  transition at x/c =  0.0030   11
 Side 2 forced transition at x/c =  1.0000   37

  21   rms: 0.4998E+00   max: 0.1362E+01   D at   43  2   RLX: 0.564
       a = 15.000      CL =  2.2368
      Cm = -0.1582     CD =  0.01550   =>   CDf =  0.00799    CDp =  0.00752

 MRCHDU: Convergence failed at  47  side 1    Res =  0.2340E+01
 MRCHDU: Convergence failed at  48  side 1    Res =  0.6542E+01
 MRCHDU: Convergence failed at  49  side 1    Res =  0.2089E+01
 MRCHDU: Convergence failed at  50  side 1    Res =  0.9092E+00
 MRCHDU: Convergence failed at  51  side 1    Res =  0.1032E+01
 MRCHDU: Convergence failed at  52  side 1    Res =  0.1089E+01
 Side 1  free  transition at x/c =  0.0021   11
 Side 2 forced transition at x/c =  1.0000   37

  22   rms: 0.4262E+00   max: 0.1798E+01   D at   52  1   RLX: 0.448
       a = 15.000      CL =  2.0765
      Cm = -0.1343     CD =  0.01825   =>   CDf =  0.00668    CDp =  0.01157

 Side 1  free  transition at x/c =  0.0011   11
 Side 2 forced transition at x/c =  1.0000   37
 idif Ue xi dudx           1  0.16806835      1.95581913E-02   8.5932465    
 Uenew xinew           2  3.18935066E-02  3.71146202E-03

  23   rms: 0.2705E+01   max: 0.9249E+01   D at   45  1   RLX: 0.162
       a = 15.000      CL =  1.8435
      Cm = -0.1262     CD =  0.03080   =>   CDf =  0.00690    CDp =  0.02390

 MRCHDU: Convergence failed at  46  side 2    Res =  0.2486E+03
 MRCHDU: Convergence failed at  47  side 2    Res =  0.2088E+01
 Side 1  free  transition at x/c =  0.0011    9
 Side 2 forced transition at x/c =  1.0000   38

  24   rms: 0.2754E+00   max: -.1553E+01   D at   10  1   RLX: 0.322
       a = 15.000      CL =  1.7528
      Cm = -0.0943     CD =  0.03666   =>   CDf =  0.00544    CDp =  0.03122

 MRCHDU: Convergence failed at  11  side 1    Res =  0.2184E+01
 Side 1  free  transition at x/c =  0.0067   11
 Side 2 forced transition at x/c =  1.0000   38

  25   rms: 0.3255E+00   max: 0.1486E+01   D at   47  2   RLX: 0.620
       a = 15.000      CL =  1.6019
      Cm = -0.0719     CD =  0.04998   =>   CDf =  0.00532    CDp =  0.04467

 Side 1  free  transition at x/c =  0.0043   10
 Side 2 forced transition at x/c =  1.0000   38
 idif Ue xi dudx           1  0.15968578      1.52933598E-02   10.441510    
 Uenew xinew           2  1.33596333E-02  1.27947330E-03

  26   rms: 0.2563E+00   max: 0.1481E+01   D at   34  1
       a = 15.000      CL =  1.3722
      Cm = -0.0556     CD =  0.06872   =>   CDf =  0.00575    CDp =  0.06297

 Side 1  free  transition at x/c =  0.0040    9
 Side 2 forced transition at x/c =  1.0000   39

  27   rms: 0.8396E-01   max: -.5554E+00   D at   33  1   RLX: 0.900
       a = 15.000      CL =  1.4282
      Cm = -0.0510     CD =  0.05718   =>   CDf =  0.00405    CDp =  0.05313

 Side 1  free  transition at x/c =  0.0036   10
 Side 2 forced transition at x/c =  1.0000   38

  28   rms: 0.1830E-01   max: -.1140E+00   D at   34  1
       a = 15.000      CL =  1.4459
      Cm = -0.0531     CD =  0.05636   =>   CDf =  0.00480    CDp =  0.05156

 Side 1  free  transition at x/c =  0.0034   10
 Side 2 forced transition at x/c =  1.0000   38

  29   rms: 0.1987E-02   max: 0.1399E-01   D at   32  1
       a = 15.000      CL =  1.4453
      Cm = -0.0532     CD =  0.05658   =>   CDf =  0.00484    CDp =  0.05174

 Side 1  free  transition at x/c =  0.0035   10
 Side 2 forced transition at x/c =  1.0000   38

  30   rms: 0.1500E-03   max: -.9638E-03   C at   38  2
       a = 15.000      CL =  1.4452
      Cm = -0.0532     CD =  0.05658   =>   CDf =  0.00483    CDp =  0.05175

 Side 1  free  transition at x/c =  0.0035   10
 Side 2 forced transition at x/c =  1.0000   38

  31   rms: 0.5280E-05   max: -.4200E-04   C at   38  2
       a = 15.000      CL =  1.4452
      Cm = -0.0532     CD =  0.05658   =>   CDf =  0.00483    CDp =  0.05175
 plradd ia,ip,cpol          182          50   0.0000000    

 Point added to stored polar  1
 Point written to save file  XFOIL_Polar_Output.dat                          
 Dump file unspecified or not available

.OPERva   c>  
 Polar accumulation disabled

.OPERv   c>  