
 ===================================================
  XFOIL Version 6.99
  Copyright (C) 2000   Mark Drela, Harold Youngren

  This software comes with ABSOLUTELY NO WARRANTY,
    subject to the GNU General Public License.

  Caveat computor
 ===================================================

 File  xfoil.def  not found

   QUIT    Exit program

  .OPER    Direct operating point(s)
  .MDES    Complex mapping design routine
  .QDES    Surface speed design routine
  .GDES    Geometry design routine

   SAVE f  Write airfoil to labeled coordinate file
   PSAV f  Write airfoil to plain coordinate file
   ISAV f  Write airfoil to ISES coordinate file
   MSAV f  Write airfoil to MSES coordinate file
   REVE    Reverse written-airfoil node ordering

   LOAD f  Read buffer airfoil from coordinate file
   NACA i  Set NACA 4,5-digit airfoil and buffer airfoil
   INTE    Set buffer airfoil by interpolating two airfoils
   NORM    Buffer airfoil normalization toggle
   XYCM rr Change CM reference location, currently  0.25000 0.00000

   BEND    Display structural properties of current airfoil

   PCOP    Set current-airfoil panel nodes directly from buffer airfoil points
   PANE    Set current-airfoil panel nodes ( 160 ) based on curvature
  .PPAR    Show/change paneling

  .PLOP    Plotting options

   WDEF f  Write  current-settings file
   RDEF f  Reread current-settings file
   NAME s  Specify new airfoil name
   NINC    Increment name version number

   Z       Zoom    | (available in all menus)
   U       Unzoom  | 

 XFOIL   c>   ...............................................

  G raphics-enable flag:        T
  S ize of plot object          10.00"
  A spect ratio of plot object   0.5500
  P age dimensions              11.00 x  8.50"
  M argins from page edges       0.00",  0.00"
  F ont size (relative)          0.0150
  W indow/screen size fraction   0.8000
  B lowup input method:        Cursor    
  O rientation of plot:        Landscape 
  C olor PostScript output?     F

      Option, Value   (or <Return>)    c>   ...............................................

  G raphics-enable flag:        F
  S ize of plot object          10.00"
  A spect ratio of plot object   0.5500
  P age dimensions              11.00 x  8.50"
  M argins from page edges       0.00",  0.00"
  F ont size (relative)          0.0150
  W indow/screen size fraction   0.8000
  B lowup input method:        Cursor    
  O rientation of plot:        Landscape 
  C olor PostScript output?     F

      Option, Value   (or <Return>)    c>  
 XFOIL   c>  
Enter filename   s>  
 Labeled airfoil file.  Name:  NACA63012A                                      

 Number of input coordinate points:  51
 Counterclockwise ordering
 Max thickness =     0.119900  at x =   0.350
 Max camber    =    -0.000000  at x =   0.025

  LE  x,y  =   0.00000   0.00000  |   Chord =   1.00000
  TE  x,y  =   1.00000   0.00000  |

 Current airfoil nodes set from buffer airfoil nodes (  51 )

 WARNING: Poor input coordinate distribution
          Excessive panel angle   54.4  at i =  26
          Repaneling with PANE and/or PPAR suggested
           (doing GDES,CADD before repaneling _may_
            improve excessively coarse LE spacing

 XFOIL   c>  
.OPERi   c>   Current iteration limit:          10

Enter new iteration limit   i>  
.OPERi   c>  
Enter Reynolds number   r>  
 M  =    0.0000
 Re =   3000000

.OPERv   c>  
 Polar  1 newly created for accumulation
 Airfoil archived with polar: NACA63012A                                      

Enter  polar save filename  OR  <return> for no file   s>  
 New polar save file available

Enter  polar dump filename  OR  <return> for no file   s>  
 Polar dump file will NOT be written

 Polar accumulation enabled

.OPERva   c>  
Enter angle of attack (deg)   r>   Calculating unit vorticity distributions ...
 Calculating wake trajectory ...
 Calculating source influence matrix ...

 Solving BL system ...

 Initializing BL ...
    side            1  ...
 MRCHUE: Inverse mode at  20     Hk =   7.968
 MRCHUE: Inverse mode at  21     Hk =   2.500
    side            2  ...
 MRCHUE: Inverse mode at   5     Hk =   6.796
 MRCHUE: Inverse mode at   6     Hk =   2.500
 MRCHUE: Convergence failed at  28  side 2    Res =  0.1307E+01

 Side 1  free  transition at x/c =  0.7454   20
 Side 2  free  transition at x/c =  0.0096    6

   1   rms: 0.2302E+00   max: -.1614E+01   D at   21  1   RLX: 0.310
       a = -5.000      CL = -0.5870
      Cm =  0.0130     CD =  0.00652   =>   CDf =  0.00539    CDp =  0.00113

 Side 1  free  transition at x/c =  0.7475   20
 Side 2  free  transition at x/c =  0.0092    6

   2   rms: 0.1632E+00   max: -.1294E+01   D at   21  1   RLX: 0.386
       a = -5.000      CL = -0.5638
      Cm =  0.0070     CD =  0.00703   =>   CDf =  0.00538    CDp =  0.00165

 Side 1  free  transition at x/c =  0.7491   20
 Side 2  free  transition at x/c =  0.0092    6

   3   rms: 0.9277E-01   max: -.7009E+00   D at   21  1   RLX: 0.713
       a = -5.000      CL = -0.5392
      Cm =  0.0005     CD =  0.00772   =>   CDf =  0.00539    CDp =  0.00233

 Side 1  free  transition at x/c =  0.8012   22
 Side 2  free  transition at x/c =  0.0094    6

   4   rms: 0.1896E-01   max: 0.9166E-01   D at   20  1
       a = -5.000      CL = -0.5282
      Cm = -0.0023     CD =  0.00794   =>   CDf =  0.00525    CDp =  0.00269

 Side 1  free  transition at x/c =  0.7943   21
 Side 2  free  transition at x/c =  0.0096    6

   5   rms: 0.2181E-02   max: -.2698E-01   C at   21  1
       a = -5.000      CL = -0.5281
      Cm = -0.0024     CD =  0.00793   =>   CDf =  0.00525    CDp =  0.00268

 Side 1  free  transition at x/c =  0.7945   21
 Side 2  free  transition at x/c =  0.0096    6

   6   rms: 0.3739E-05   max: -.4458E-04   D at   21  1
       a = -5.000      CL = -0.5281
      Cm = -0.0024     CD =  0.00793   =>   CDf =  0.00524    CDp =  0.00269
 plradd ia,ip,cpol            1          24  4.99999989E-03

 Point added to stored polar  1
 Point written to save file  XFOIL_Polar_Output.dat                          
 Dump file unspecified or not available

.OPERva   c>  
Enter angle of attack (deg)   r>   Calculating wake trajectory ...
 Calculating source influence matrix ...

 Solving BL system ...

 Side 1  free  transition at x/c =  0.7945   21
 Side 2  free  transition at x/c =  0.0096    6

   1   rms: 0.2275E-01   max: 0.1128E+00   D at    6  2
       a = -4.900      CL = -0.5174
      Cm = -0.0023     CD =  0.00785   =>   CDf =  0.00550    CDp =  0.00234

 Side 1  free  transition at x/c =  0.7917   22
 Side 2  free  transition at x/c =  0.0109    5

   2   rms: 0.1028E+00   max: -.8704E+00   D at    2  1   RLX: 0.574
       a = -4.900      CL = -0.5182
      Cm = -0.0025     CD =  0.00780   =>   CDf =  0.00530    CDp =  0.00250

 Side 1  free  transition at x/c =  0.7917   22
 Side 2  free  transition at x/c =  0.0109    5

   3   rms: 0.2461E-01   max: 0.3198E+00   D at    5  2
       a = -4.900      CL = -0.5176
      Cm = -0.0024     CD =  0.00784   =>   CDf =  0.00528    CDp =  0.00257

 Side 1  free  transition at x/c =  0.7918   22
 Side 2  free  transition at x/c =  0.0109    5

   4   rms: 0.4174E-02   max: 0.5177E-01   D at    5  2
       a = -4.900      CL = -0.5175
      Cm = -0.0024     CD =  0.00785   =>   CDf =  0.00525    CDp =  0.00260

 Side 1  free  transition at x/c =  0.7918   22
 Side 2  free  transition at x/c =  0.0109    5

   5   rms: 0.9253E-04   max: 0.1134E-02   D at    5  2
       a = -4.900      CL = -0.5175
      Cm = -0.0024     CD =  0.00786   =>   CDf =  0.00525    CDp =  0.00261
 plradd ia,ip,cpol            2          25  4.99999989E-03

 Point added to stored polar  1
 Point written to save file  XFOIL_Polar_Output.dat                          
 Dump file unspecified or not available

.OPERva   c>  
Enter angle of attack (deg)   r>   Calculating wake trajectory ...
 Calculating source influence matrix ...

 Solving BL system ...

 Side 1  free  transition at x/c =  0.7918   22
 Side 2  free  transition at x/c =  0.0109    5

   1   rms: 0.1783E-01   max: -.4994E-01   D at    6  2
       a = -4.800      CL = -0.5067
      Cm = -0.0024     CD =  0.00779   =>   CDf =  0.00525    CDp =  0.00254

 Side 1  free  transition at x/c =  0.7884   22
 Side 2  free  transition at x/c =  0.0109    5

   2   rms: 0.1754E-03   max: 0.1620E-02   D at    5  2
       a = -4.800      CL = -0.5067
      Cm = -0.0024     CD =  0.00779   =>   CDf =  0.00527    CDp =  0.00253

 Side 1  free  transition at x/c =  0.7885   22
 Side 2  free  transition at x/c =  0.0109    5

   3   rms: 0.3281E-06   max: -.1804E-05   C at   22  1
       a = -4.800      CL = -0.5067
      Cm = -0.0024     CD =  0.00779   =>   CDf =  0.00527    CDp =  0.00253
 plradd ia,ip,cpol            3          25  4.99999989E-03

 Point added to stored polar  1
 Point written to save file  XFOIL_Polar_Output.dat                          
 Dump file unspecified or not available

.OPERva   c>  
Enter angle of attack (deg)   r>   Calculating wake trajectory ...
 Calculating source influence matrix ...

 Solving BL system ...

 Side 1  free  transition at x/c =  0.7885   22
 Side 2  free  transition at x/c =  0.0109    5

   1   rms: 0.1758E-01   max: -.4644E-01   D at    6  2
       a = -4.700      CL = -0.4959
      Cm = -0.0024     CD =  0.00773   =>   CDf =  0.00527    CDp =  0.00246

 Side 1  free  transition at x/c =  0.7847   22
 Side 2  free  transition at x/c =  0.0109    5

   2   rms: 0.1305E-03   max: 0.1566E-02   D at    5  2
       a = -4.700      CL = -0.4959
      Cm = -0.0024     CD =  0.00773   =>   CDf =  0.00529    CDp =  0.00245

 Side 1  free  transition at x/c =  0.7847   22
 Side 2  free  transition at x/c =  0.0109    5

   3   rms: 0.3175E-06   max: -.1715E-05   D at   22  1
       a = -4.700      CL = -0.4959
      Cm = -0.0024     CD =  0.00773   =>   CDf =  0.00529    CDp =  0.00245
 plradd ia,ip,cpol            4          25  4.99999989E-03

 Point added to stored polar  1
 Point written to save file  XFOIL_Polar_Output.dat                          
 Dump file unspecified or not available

.OPERva   c>  
Enter angle of attack (deg)   r>   Calculating wake trajectory ...
 Calculating source influence matrix ...

 Solving BL system ...

 Side 1  free  transition at x/c =  0.7847   22
 Side 2  free  transition at x/c =  0.0109    5

   1   rms: 0.1775E-01   max: -.4608E-01   D at    6  2
       a = -4.600      CL = -0.4851
      Cm = -0.0023     CD =  0.00768   =>   CDf =  0.00529    CDp =  0.00239

 Side 1  free  transition at x/c =  0.7806   22
 Side 2  free  transition at x/c =  0.0109    5

   2   rms: 0.1621E-03   max: 0.2193E-02   D at    5  2
       a = -4.600      CL = -0.4851
      Cm = -0.0023     CD =  0.00768   =>   CDf =  0.00531    CDp =  0.00237

 Side 1  free  transition at x/c =  0.7806   22
 Side 2  free  transition at x/c =  0.0109    5

   3   rms: 0.3413E-06   max: 0.1158E-05   C at    9  2
       a = -4.600      CL = -0.4851
      Cm = -0.0023     CD =  0.00768   =>   CDf =  0.00531    CDp =  0.00237
 plradd ia,ip,cpol            5          25  4.99999989E-03

 Point added to stored polar  1
 Point written to save file  XFOIL_Polar_Output.dat                          
 Dump file unspecified or not available

.OPERva   c>  
Enter angle of attack (deg)   r>   Calculating wake trajectory ...
 Calculating source influence matrix ...

 Solving BL system ...

 Side 1  free  transition at x/c =  0.7806   22
 Side 2  free  transition at x/c =  0.0109    5

   1   rms: 0.1753E-01   max: -.4106E-01   D at    6  2
       a = -4.500      CL = -0.4743
      Cm = -0.0023     CD =  0.00763   =>   CDf =  0.00531    CDp =  0.00232

 Side 1  free  transition at x/c =  0.7762   22
 Side 2  free  transition at x/c =  0.0109    5

   2   rms: 0.1906E-03   max: 0.2318E-02   D at    5  2
       a = -4.500      CL = -0.4743
      Cm = -0.0023     CD =  0.00764   =>   CDf =  0.00533    CDp =  0.00230

 Side 1  free  transition at x/c =  0.7762   22
 Side 2  free  transition at x/c =  0.0109    5

   3   rms: 0.5411E-06   max: 0.4314E-05   D at    5  2
       a = -4.500      CL = -0.4743
      Cm = -0.0023     CD =  0.00764   =>   CDf =  0.00533    CDp =  0.00230
 plradd ia,ip,cpol            6          25  4.99999989E-03

 Point added to stored polar  1
 Point written to save file  XFOIL_Polar_Output.dat                          
 Dump file unspecified or not available

.OPERva   c>  
Enter angle of attack (deg)   r>   Calculating wake trajectory ...
 Calculating source influence matrix ...

 Solving BL system ...

 Side 1  free  transition at x/c =  0.7762   22
 Side 2  free  transition at x/c =  0.0109    5

   1   rms: 0.1751E-01   max: -.6823E-01   D at    5  2
       a = -4.400      CL = -0.4636
      Cm = -0.0023     CD =  0.00759   =>   CDf =  0.00533    CDp =  0.00226

 Side 1  free  transition at x/c =  0.7714   22
 Side 2  free  transition at x/c =  0.0109    5

   2   rms: 0.3517E-03   max: 0.4035E-02   D at    5  2
       a = -4.400      CL = -0.4636
      Cm = -0.0023     CD =  0.00759   =>   CDf =  0.00536    CDp =  0.00224

 Side 1  free  transition at x/c =  0.7713   22
 Side 2  free  transition at x/c =  0.0109    5

   3   rms: 0.1832E-05   max: 0.2303E-04   D at    5  2
       a = -4.400      CL = -0.4636
      Cm = -0.0023     CD =  0.00759   =>   CDf =  0.00536    CDp =  0.00224
 plradd ia,ip,cpol            7          25  4.99999989E-03

 Point added to stored polar  1
 Point written to save file  XFOIL_Polar_Output.dat                          
 Dump file unspecified or not available

.OPERva   c>  
Enter angle of attack (deg)   r>   Calculating wake trajectory ...
 Calculating source influence matrix ...

 Solving BL system ...

 Side 1  free  transition at x/c =  0.7713   22
 Side 2  free  transition at x/c =  0.0109    5

   1   rms: 0.1729E-01   max: -.1283E-01   D at   26  2
       a = -4.300      CL = -0.4528
      Cm = -0.0022     CD =  0.00755   =>   CDf =  0.00536    CDp =  0.00219

 Side 1  free  transition at x/c =  0.7660   22
 Side 2  free  transition at x/c =  0.0108    5

   2   rms: 0.3865E-03   max: 0.3909E-02   D at    5  2
       a = -4.300      CL = -0.4528
      Cm = -0.0022     CD =  0.00755   =>   CDf =  0.00538    CDp =  0.00217

 Side 1  free  transition at x/c =  0.7657   22
 Side 2  free  transition at x/c =  0.0108    5

   3   rms: 0.1797E-05   max: -.1533E-04   D at   22  1
       a = -4.300      CL = -0.4528
      Cm = -0.0022     CD =  0.00755   =>   CDf =  0.00538    CDp =  0.00217
 plradd ia,ip,cpol            8          25  4.99999989E-03

 Point added to stored polar  1
 Point written to save file  XFOIL_Polar_Output.dat                          
 Dump file unspecified or not available

.OPERva   c>  
Enter angle of attack (deg)   r>   Calculating wake trajectory ...
 Calculating source influence matrix ...

 Solving BL system ...

 Side 1  free  transition at x/c =  0.7657   22
 Side 2  free  transition at x/c =  0.0108    5

   1   rms: 0.1714E-01   max: -.6669E-01   D at    5  2
       a = -4.200      CL = -0.4419
      Cm = -0.0022     CD =  0.00751   =>   CDf =  0.00538    CDp =  0.00213

 Side 1  free  transition at x/c =  0.7597   22
 Side 2  free  transition at x/c =  0.0108    5

   2   rms: 0.3261E-03   max: 0.3359E-02   D at    5  2
       a = -4.200      CL = -0.4419
      Cm = -0.0022     CD =  0.00751   =>   CDf =  0.00540    CDp =  0.00211

 Side 1  free  transition at x/c =  0.7594   22
 Side 2  free  transition at x/c =  0.0108    5

   3   rms: 0.1333E-05   max: -.1199E-04   D at   22  1
       a = -4.200      CL = -0.4419
      Cm = -0.0022     CD =  0.00751   =>   CDf =  0.00540    CDp =  0.00211
 plradd ia,ip,cpol            9          25  4.99999989E-03

 Point added to stored polar  1
 Point written to save file  XFOIL_Polar_Output.dat                          
 Dump file unspecified or not available

.OPERva   c>  
Enter angle of attack (deg)   r>   Calculating wake trajectory ...
 Calculating source influence matrix ...

 Solving BL system ...

 Side 1  free  transition at x/c =  0.7594   22
 Side 2  free  transition at x/c =  0.0108    5

   1   rms: 0.1684E-01   max: -.6591E-01   D at    5  2
       a = -4.100      CL = -0.4310
      Cm = -0.0022     CD =  0.00747   =>   CDf =  0.00540    CDp =  0.00207

 Side 1  free  transition at x/c =  0.7536   22
 Side 2  free  transition at x/c =  0.0108    5

   2   rms: 0.2897E-03   max: 0.3260E-02   D at    5  2
       a = -4.100      CL = -0.4310
      Cm = -0.0022     CD =  0.00747   =>   CDf =  0.00541    CDp =  0.00206

 Side 1  free  transition at x/c =  0.7534   22
 Side 2  free  transition at x/c =  0.0108    5

   3   rms: 0.8623E-06   max: 0.1080E-04   D at    5  2
       a = -4.100      CL = -0.4310
      Cm = -0.0022     CD =  0.00747   =>   CDf =  0.00541    CDp =  0.00206
 plradd ia,ip,cpol           10          25  4.99999989E-03

 Point added to stored polar  1
 Point written to save file  XFOIL_Polar_Output.dat                          
 Dump file unspecified or not available

.OPERva   c>  
Enter angle of attack (deg)   r>   Calculating wake trajectory ...
 Calculating source influence matrix ...

 Solving BL system ...

 Side 1  free  transition at x/c =  0.7534   22
 Side 2  free  transition at x/c =  0.0108    5

   1   rms: 0.1673E-01   max: -.6615E-01   D at    5  2
       a = -4.000      CL = -0.4200
      Cm = -0.0022     CD =  0.00743   =>   CDf =  0.00541    CDp =  0.00201

 Side 1  free  transition at x/c =  0.7496   21
 Side 2  free  transition at x/c =  0.0108    5

   2   rms: 0.6420E-03   max: -.8001E-02   C at   21  1
       a = -4.000      CL = -0.4200
      Cm = -0.0023     CD =  0.00743   =>   CDf =  0.00542    CDp =  0.00200

 Side 1  free  transition at x/c =  0.7498   21
 Side 2  free  transition at x/c =  0.0108    5

   3   rms: 0.1596E-05   max: -.2082E-04   C at   21  1
       a = -4.000      CL = -0.4200
      Cm = -0.0023     CD =  0.00743   =>   CDf =  0.00542    CDp =  0.00200
 plradd ia,ip,cpol           11          25  4.99999989E-03

 Point added to stored polar  1
 Point written to save file  XFOIL_Polar_Output.dat                          
 Dump file unspecified or not available

.OPERva   c>  
Enter angle of attack (deg)   r>   Calculating wake trajectory ...
 Calculating source influence matrix ...

 Solving BL system ...

 Side 1  free  transition at x/c =  0.7498   21
 Side 2  free  transition at x/c =  0.0108    5

   1   rms: 0.1662E-01   max: -.6470E-01   D at    5  2
       a = -3.900      CL = -0.4089
      Cm = -0.0023     CD =  0.00737   =>   CDf =  0.00542    CDp =  0.00195

 Side 1  free  transition at x/c =  0.7489   21
 Side 2  free  transition at x/c =  0.0108    5

   2   rms: 0.2373E-03   max: 0.3102E-02   D at    5  2
       a = -3.900      CL = -0.4089
      Cm = -0.0023     CD =  0.00738   =>   CDf =  0.00542    CDp =  0.00195

 Side 1  free  transition at x/c =  0.7489   21
 Side 2  free  transition at x/c =  0.0108    5

   3   rms: 0.6886E-06   max: 0.6424E-05   D at    5  2
       a = -3.900      CL = -0.4089
      Cm = -0.0023     CD =  0.00738   =>   CDf =  0.00542    CDp =  0.00195
 plradd ia,ip,cpol           12          25  4.99999989E-03

 Point added to stored polar  1
 Point written to save file  XFOIL_Polar_Output.dat                          
 Dump file unspecified or not available

.OPERva   c>  
Enter angle of attack (deg)   r>   Calculating wake trajectory ...
 Calculating source influence matrix ...

 Solving BL system ...

 Side 1  free  transition at x/c =  0.7489   21
 Side 2  free  transition at x/c =  0.0108    5

   1   rms: 0.1650E-01   max: -.6333E-01   D at    5  2
       a = -3.800      CL = -0.3978
      Cm = -0.0023     CD =  0.00733   =>   CDf =  0.00542    CDp =  0.00190

 Side 1  free  transition at x/c =  0.7477   21
 Side 2  free  transition at x/c =  0.0109    5

   2   rms: 0.2138E-03   max: 0.2760E-02   D at    5  2
       a = -3.800      CL = -0.3978
      Cm = -0.0023     CD =  0.00733   =>   CDf =  0.00542    CDp =  0.00190

 Side 1  free  transition at x/c =  0.7477   21
 Side 2  free  transition at x/c =  0.0109    5

   3   rms: 0.7763E-06   max: 0.8617E-05   D at    5  2
       a = -3.800      CL = -0.3978
      Cm = -0.0023     CD =  0.00733   =>   CDf =  0.00542    CDp =  0.00190
 plradd ia,ip,cpol           13          25  4.99999989E-03

 Point added to stored polar  1
 Point written to save file  XFOIL_Polar_Output.dat                          
 Dump file unspecified or not available

.OPERva   c>  
Enter angle of attack (deg)   r>   Calculating wake trajectory ...
 Calculating source influence matrix ...

 Solving BL system ...

 Side 1  free  transition at x/c =  0.7477   21
 Side 2  free  transition at x/c =  0.0109    5

   1   rms: 0.1651E-01   max: -.6350E-01   D at    5  2
       a = -3.700      CL = -0.3867
      Cm = -0.0024     CD =  0.00728   =>   CDf =  0.00542    CDp =  0.00186

 Side 1  free  transition at x/c =  0.7460   21
 Side 2  free  transition at x/c =  0.0109    5

   2   rms: 0.2168E-03   max: 0.2782E-02   D at    5  2
       a = -3.700      CL = -0.3867
      Cm = -0.0024     CD =  0.00728   =>   CDf =  0.00543    CDp =  0.00186

 Side 1  free  transition at x/c =  0.7461   21
 Side 2  free  transition at x/c =  0.0109    5

   3   rms: 0.6934E-06   max: 0.8106E-05   D at    5  2
       a = -3.700      CL = -0.3867
      Cm = -0.0024     CD =  0.00728   =>   CDf =  0.00543    CDp =  0.00186
 plradd ia,ip,cpol           14          25  4.99999989E-03

 Point added to stored polar  1
 Point written to save file  XFOIL_Polar_Output.dat                          
 Dump file unspecified or not available

.OPERva   c>  
Enter angle of attack (deg)   r>   Calculating wake trajectory ...
 Calculating source influence matrix ...

 Solving BL system ...

 Side 1  free  transition at x/c =  0.7461   21
 Side 2  free  transition at x/c =  0.0109    5

   1   rms: 0.1645E-01   max: -.1089E-01   D at   26  2
       a = -3.600      CL = -0.3756
      Cm = -0.0024     CD =  0.00724   =>   CDf =  0.00543    CDp =  0.00181

 Side 1  free  transition at x/c =  0.7438   21
 Side 2  free  transition at x/c =  0.0109    5

   2   rms: 0.1938E-03   max: 0.2363E-02   D at    5  2
       a = -3.600      CL = -0.3756
      Cm = -0.0024     CD =  0.00724   =>   CDf =  0.00543    CDp =  0.00181

 Side 1  free  transition at x/c =  0.7439   21
 Side 2  free  transition at x/c =  0.0109    5

   3   rms: 0.5607E-06   max: -.4359E-05   D at   21  1
       a = -3.600      CL = -0.3756
      Cm = -0.0024     CD =  0.00724   =>   CDf =  0.00543    CDp =  0.00181
 plradd ia,ip,cpol           15          25  4.99999989E-03

 Point added to stored polar  1
 Point written to save file  XFOIL_Polar_Output.dat                          
 Dump file unspecified or not available

.OPERva   c>  
Enter angle of attack (deg)   r>   Calculating wake trajectory ...
 Calculating source influence matrix ...

 Solving BL system ...

 Side 1  free  transition at x/c =  0.7439   21
 Side 2  free  transition at x/c =  0.0109    5

   1   rms: 0.1655E-01   max: -.1084E-01   D at   26  2
       a = -3.500      CL = -0.3645
      Cm = -0.0024     CD =  0.00720   =>   CDf =  0.00543    CDp =  0.00177

 Side 1  free  transition at x/c =  0.7410   21
 Side 2  free  transition at x/c =  0.0109    5

   2   rms: 0.1782E-03   max: 0.2044E-02   D at    5  2
       a = -3.500      CL = -0.3645
      Cm = -0.0024     CD =  0.00720   =>   CDf =  0.00544    CDp =  0.00176

 Side 1  free  transition at x/c =  0.7410   21
 Side 2  free  transition at x/c =  0.0109    5

   3   rms: 0.5879E-06   max: 0.5275E-05   D at    5  2
       a = -3.500      CL = -0.3645
      Cm = -0.0024     CD =  0.00720   =>   CDf =  0.00544    CDp =  0.00176
 plradd ia,ip,cpol           16          25  4.99999989E-03

 Point added to stored polar  1
 Point written to save file  XFOIL_Polar_Output.dat                          
 Dump file unspecified or not available

.OPERva   c>  
Enter angle of attack (deg)   r>   Calculating wake trajectory ...
 Calculating source influence matrix ...

 Solving BL system ...

 Side 1  free  transition at x/c =  0.7410   21
 Side 2  free  transition at x/c =  0.0109    5

   1   rms: 0.1662E-01   max: -.1072E-01   D at   26  2
       a = -3.400      CL = -0.3535
      Cm = -0.0025     CD =  0.00717   =>   CDf =  0.00544    CDp =  0.00173

 Side 1  free  transition at x/c =  0.7376   21
 Side 2  free  transition at x/c =  0.0109    5

   2   rms: 0.1410E-03   max: 0.1692E-02   D at    5  2
       a = -3.400      CL = -0.3535
      Cm = -0.0025     CD =  0.00717   =>   CDf =  0.00545    CDp =  0.00172

 Side 1  free  transition at x/c =  0.7377   21
 Side 2  free  transition at x/c =  0.0109    5

   3   rms: 0.3997E-06   max: -.1932E-05   C at    9  2
       a = -3.400      CL = -0.3535
      Cm = -0.0025     CD =  0.00717   =>   CDf =  0.00545    CDp =  0.00172
 plradd ia,ip,cpol           17          25  4.99999989E-03

 Point added to stored polar  1
 Point written to save file  XFOIL_Polar_Output.dat                          
 Dump file unspecified or not available

.OPERva   c>  
Enter angle of attack (deg)   r>   Calculating wake trajectory ...
 Calculating source influence matrix ...

 Solving BL system ...

 Side 1  free  transition at x/c =  0.7377   21
 Side 2  free  transition at x/c =  0.0109    5

   1   rms: 0.1680E-01   max: -.1074E-01   D at   26  2
       a = -3.300      CL = -0.3425
      Cm = -0.0025     CD =  0.00714   =>   CDf =  0.00545    CDp =  0.00169

 Side 1  free  transition at x/c =  0.7340   21
 Side 2  free  transition at x/c =  0.0110    5

   2   rms: 0.1365E-03   max: 0.1468E-02   D at    5  2
       a = -3.300      CL = -0.3425
      Cm = -0.0025     CD =  0.00714   =>   CDf =  0.00546    CDp =  0.00168

 Side 1  free  transition at x/c =  0.7340   21
 Side 2  free  transition at x/c =  0.0110    5

   3   rms: 0.4992E-06   max: -.2724E-05   C at    8  2
       a = -3.300      CL = -0.3425
      Cm = -0.0025     CD =  0.00714   =>   CDf =  0.00546    CDp =  0.00168
 plradd ia,ip,cpol           18          25  4.99999989E-03

 Point added to stored polar  1
 Point written to save file  XFOIL_Polar_Output.dat                          
 Dump file unspecified or not available

.OPERva   c>  
Enter angle of attack (deg)   r>   Calculating wake trajectory ...
 Calculating source influence matrix ...

 Solving BL system ...

 Side 1  free  transition at x/c =  0.7340   21
 Side 2  free  transition at x/c =  0.0110    5

   1   rms: 0.1673E-01   max: -.1057E-01   D at   26  2
       a = -3.200      CL = -0.3316
      Cm = -0.0025     CD =  0.00711   =>   CDf =  0.00546    CDp =  0.00165

 Side 1  free  transition at x/c =  0.7302   21
 Side 2  free  transition at x/c =  0.0110    5

   2   rms: 0.1106E-03   max: 0.1071E-02   D at    5  2
       a = -3.200      CL = -0.3316
      Cm = -0.0025     CD =  0.00711   =>   CDf =  0.00547    CDp =  0.00164

 Side 1  free  transition at x/c =  0.7302   21
 Side 2  free  transition at x/c =  0.0110    5

   3   rms: 0.7645E-06   max: 0.7283E-05   D at   21  1
       a = -3.200      CL = -0.3316
      Cm = -0.0025     CD =  0.00711   =>   CDf =  0.00547    CDp =  0.00164
 plradd ia,ip,cpol           19          25  4.99999989E-03

 Point added to stored polar  1
 Point written to save file  XFOIL_Polar_Output.dat                          
 Dump file unspecified or not available

.OPERva   c>  
Enter angle of attack (deg)   r>   Calculating wake trajectory ...
 Calculating source influence matrix ...

 Solving BL system ...

 Side 1  free  transition at x/c =  0.7302   21
 Side 2  free  transition at x/c =  0.0110    5

   1   rms: 0.1684E-01   max: -.1063E-01   D at   26  2
       a = -3.100      CL = -0.3206
      Cm = -0.0025     CD =  0.00708   =>   CDf =  0.00547    CDp =  0.00161

 Side 1  free  transition at x/c =  0.7261   21
 Side 2  free  transition at x/c =  0.0110    5

   2   rms: 0.1349E-03   max: -.1043E-02   D at   21  1
       a = -3.100      CL = -0.3206
      Cm = -0.0025     CD =  0.00708   =>   CDf =  0.00549    CDp =  0.00160

 Side 1  free  transition at x/c =  0.7260   21
 Side 2  free  transition at x/c =  0.0110    5

   3   rms: 0.8840E-06   max: -.8096E-05   D at   21  1
       a = -3.100      CL = -0.3206
      Cm = -0.0025     CD =  0.00708   =>   CDf =  0.00549    CDp =  0.00160
 plradd ia,ip,cpol           20          25  4.99999989E-03

 Point added to stored polar  1
 Point written to save file  XFOIL_Polar_Output.dat                          
 Dump file unspecified or not available

.OPERva   c>  
Enter angle of attack (deg)   r>   Calculating wake trajectory ...
 Calculating source influence matrix ...

 Solving BL system ...

 Side 1  free  transition at x/c =  0.7260   21
 Side 2  free  transition at x/c =  0.0110    5

   1   rms: 0.1687E-01   max: -.1060E-01   D at   26  2
       a = -3.000      CL = -0.3097
      Cm = -0.0025     CD =  0.00706   =>   CDf =  0.00549    CDp =  0.00157

 Side 1  free  transition at x/c =  0.7216   21
 Side 2  free  transition at x/c =  0.0111    5

   2   rms: 0.2159E-03   max: -.2104E-02   D at   21  1
       a = -3.000      CL = -0.3097
      Cm = -0.0025     CD =  0.00706   =>   CDf =  0.00550    CDp =  0.00156

 Side 1  free  transition at x/c =  0.7215   21
 Side 2  free  transition at x/c =  0.0111    5

   3   rms: 0.1030E-05   max: -.7953E-05   D at   21  1
       a = -3.000      CL = -0.3097
      Cm = -0.0025     CD =  0.00706   =>   CDf =  0.00550    CDp =  0.00156
 plradd ia,ip,cpol           21          25  4.99999989E-03

 Point added to stored polar  1
 Point written to save file  XFOIL_Polar_Output.dat                          
 Dump file unspecified or not available

.OPERva   c>  
Enter angle of attack (deg)   r>   Calculating wake trajectory ...
 Calculating source influence matrix ...

 Solving BL system ...

 Side 1  free  transition at x/c =  0.7215   21
 Side 2  free  transition at x/c =  0.0111    5

   1   rms: 0.1697E-01   max: -.1065E-01   D at   26  2
       a = -2.900      CL = -0.2988
      Cm = -0.0025     CD =  0.00704   =>   CDf =  0.00550    CDp =  0.00153

 Side 1  free  transition at x/c =  0.7165   21
 Side 2  free  transition at x/c =  0.0112    5

   2   rms: 0.3065E-03   max: -.2766E-02   D at   21  1
       a = -2.900      CL = -0.2988
      Cm = -0.0025     CD =  0.00704   =>   CDf =  0.00552    CDp =  0.00152

 Side 1  free  transition at x/c =  0.7163   21
 Side 2  free  transition at x/c =  0.0112    5

   3   rms: 0.1307E-05   max: -.7793E-05   C at    8  2
       a = -2.900      CL = -0.2988
      Cm = -0.0025     CD =  0.00704   =>   CDf =  0.00552    CDp =  0.00152
 plradd ia,ip,cpol           22          25  4.99999989E-03

 Point added to stored polar  1
 Point written to save file  XFOIL_Polar_Output.dat                          
 Dump file unspecified or not available

.OPERva   c>  
Enter angle of attack (deg)   r>   Calculating wake trajectory ...
 Calculating source influence matrix ...

 Solving BL system ...

 Side 1  free  transition at x/c =  0.7163   21
 Side 2  free  transition at x/c =  0.0112    5

   1   rms: 0.1690E-01   max: -.1057E-01   D at   26  2
       a = -2.800      CL = -0.2878
      Cm = -0.0025     CD =  0.00701   =>   CDf =  0.00552    CDp =  0.00149

 Side 1  free  transition at x/c =  0.7105   21
 Side 2  free  transition at x/c =  0.0113    5

   2   rms: 0.2813E-03   max: -.2334E-02   D at   21  1
       a = -2.800      CL = -0.2878
      Cm = -0.0025     CD =  0.00701   =>   CDf =  0.00553    CDp =  0.00148

 Side 1  free  transition at x/c =  0.7103   21
 Side 2  free  transition at x/c =  0.0113    5

   3   rms: 0.1753E-05   max: -.1506E-04   D at   21  1
       a = -2.800      CL = -0.2878
      Cm = -0.0025     CD =  0.00701   =>   CDf =  0.00553    CDp =  0.00148
 plradd ia,ip,cpol           23          25  4.99999989E-03

 Point added to stored polar  1
 Point written to save file  XFOIL_Polar_Output.dat                          
 Dump file unspecified or not available

.OPERva   c>  
Enter angle of attack (deg)   r>   Calculating wake trajectory ...
 Calculating source influence matrix ...

 Solving BL system ...

 Side 1  free  transition at x/c =  0.7103   21
 Side 2  free  transition at x/c =  0.0113    5

   1   rms: 0.1714E-01   max: -.6902E-01   C at    5  2
       a = -2.700      CL = -0.2768
      Cm = -0.0025     CD =  0.00698   =>   CDf =  0.00553    CDp =  0.00145

 Side 1  free  transition at x/c =  0.7046   21
 Side 2  free  transition at x/c =  0.0114    5

   2   rms: 0.4119E-03   max: -.3099E-02   C at    5  2
       a = -2.700      CL = -0.2768
      Cm = -0.0025     CD =  0.00698   =>   CDf =  0.00554    CDp =  0.00144

 Side 1  free  transition at x/c =  0.7043   21
 Side 2  free  transition at x/c =  0.0115    5

   3   rms: 0.1465E-05   max: -.1151E-04   C at    5  2
       a = -2.700      CL = -0.2768
      Cm = -0.0025     CD =  0.00698   =>   CDf =  0.00554    CDp =  0.00144
 plradd ia,ip,cpol           24          25  4.99999989E-03

 Point added to stored polar  1
 Point written to save file  XFOIL_Polar_Output.dat                          
 Dump file unspecified or not available

.OPERva   c>  
Enter angle of attack (deg)   r>   Calculating wake trajectory ...
 Calculating source influence matrix ...

 Solving BL system ...

 Side 1  free  transition at x/c =  0.7043   21
 Side 2  free  transition at x/c =  0.0115    5

   1   rms: 0.1741E-01   max: -.8909E-01   C at    5  2
       a = -2.600      CL = -0.2658
      Cm = -0.0026     CD =  0.00695   =>   CDf =  0.00554    CDp =  0.00141

 Side 1  free  transition at x/c =  0.6999   20
 Side 2  free  transition at x/c =  0.0116    5

   2   rms: 0.5624E-03   max: -.5715E-02   C at    5  2
       a = -2.600      CL = -0.2658
      Cm = -0.0026     CD =  0.00695   =>   CDf =  0.00554    CDp =  0.00141

 Side 1  free  transition at x/c =  0.6999   20
 Side 2  free  transition at x/c =  0.0116    5

   3   rms: 0.1652E-05   max: -.1871E-04   C at    5  2
       a = -2.600      CL = -0.2658
      Cm = -0.0026     CD =  0.00695   =>   CDf =  0.00554    CDp =  0.00141
 plradd ia,ip,cpol           25          25  4.99999989E-03

 Point added to stored polar  1
 Point written to save file  XFOIL_Polar_Output.dat                          
 Dump file unspecified or not available

.OPERva   c>  
Enter angle of attack (deg)   r>   Calculating wake trajectory ...
 Calculating source influence matrix ...

 Solving BL system ...

 Side 1  free  transition at x/c =  0.6999   20
 Side 2  free  transition at x/c =  0.0116    5

   1   rms: 0.1964E-01   max: -.1538E+00   C at    5  2
       a = -2.500      CL = -0.2546
      Cm = -0.0026     CD =  0.00690   =>   CDf =  0.00554    CDp =  0.00136

 Side 1  free  transition at x/c =  0.6991   20
 Side 2  free  transition at x/c =  0.0119    5

   2   rms: 0.1537E-02   max: -.2111E-01   C at    5  2
       a = -2.500      CL = -0.2546
      Cm = -0.0026     CD =  0.00690   =>   CDf =  0.00553    CDp =  0.00137

 Side 1  free  transition at x/c =  0.6992   20
 Side 2  free  transition at x/c =  0.0119    5

   3   rms: 0.1665E-04   max: -.2347E-03   C at    5  2
       a = -2.500      CL = -0.2546
      Cm = -0.0026     CD =  0.00690   =>   CDf =  0.00553    CDp =  0.00137
 plradd ia,ip,cpol           26          25  4.99999989E-03

 Point added to stored polar  1
 Point written to save file  XFOIL_Polar_Output.dat                          
 Dump file unspecified or not available

.OPERva   c>  
Enter angle of attack (deg)   r>   Calculating wake trajectory ...
 Calculating source influence matrix ...

 Solving BL system ...

 Side 1  free  transition at x/c =  0.6992   20
 Side 2  free  transition at x/c =  0.0119    5

   1   rms: 0.2539E-01   max: -.2851E+00   C at    5  2
       a = -2.400      CL = -0.2435
      Cm = -0.0027     CD =  0.00686   =>   CDf =  0.00553    CDp =  0.00133

 Side 1  free  transition at x/c =  0.6981   20
 Side 2  free  transition at x/c =  0.0123    5

   2   rms: 0.4471E-02   max: -.6703E-01   C at    5  2
       a = -2.400      CL = -0.2435
      Cm = -0.0027     CD =  0.00686   =>   CDf =  0.00552    CDp =  0.00134

 Side 1  free  transition at x/c =  0.6981   20
 Side 2  free  transition at x/c =  0.0123    5

   3   rms: 0.9810E-04   max: -.1482E-02   C at    5  2
       a = -2.400      CL = -0.2435
      Cm = -0.0027     CD =  0.00686   =>   CDf =  0.00552    CDp =  0.00134
 plradd ia,ip,cpol           27          25  4.99999989E-03

 Point added to stored polar  1
 Point written to save file  XFOIL_Polar_Output.dat                          
 Dump file unspecified or not available

.OPERva   c>  
Enter angle of attack (deg)   r>   Calculating wake trajectory ...
 Calculating source influence matrix ...

 Solving BL system ...

 Side 1  free  transition at x/c =  0.6981   20
 Side 2  free  transition at x/c =  0.0123    5

   1   rms: 0.4546E-01   max: -.6441E+00   C at    5  2   RLX: 0.776
       a = -2.300      CL = -0.2349
      Cm = -0.0027     CD =  0.00682   =>   CDf =  0.00552    CDp =  0.00130

 Side 1  free  transition at x/c =  0.6970   20
 Side 2  free  transition at x/c =  0.0121    5

   2   rms: 0.7878E-01   max: -.8986E+00   D at    5  2   RLX: 0.556
       a = -2.300      CL = -0.2329
      Cm = -0.0025     CD =  0.00681   =>   CDf =  0.00551    CDp =  0.00129

 Side 1  free  transition at x/c =  0.6968   20
 Side 2  free  transition at x/c =  0.0145    6

   3   rms: 0.4217E+00   max: 0.4560E+01   D at    5  2   RLX: 0.329
       a = -2.300      CL = -0.2322
      Cm = -0.0026     CD =  0.00685   =>   CDf =  0.00551    CDp =  0.00134

 Side 1  free  transition at x/c =  0.6967   20
 Side 2  free  transition at x/c =  0.0113    5

   4   rms: 0.1239E+00   max: -.1206E+01   D at    5  2   RLX: 0.415
       a = -2.300      CL = -0.2315
      Cm = -0.0023     CD =  0.00680   =>   CDf =  0.00549    CDp =  0.00130

 Side 1  free  transition at x/c =  0.6967   20
 Side 2  free  transition at x/c =  0.0124    5

   5   rms: 0.7064E-01   max: -.8063E+00   D at    5  2   RLX: 0.620
       a = -2.300      CL = -0.2322
      Cm = -0.0025     CD =  0.00680   =>   CDf =  0.00551    CDp =  0.00129

 Side 1  free  transition at x/c =  0.6967   20
 Side 2  free  transition at x/c =  0.0143    6

   6   rms: 0.3445E+00   max: 0.3640E+01   D at    5  2   RLX: 0.412
       a = -2.300      CL = -0.2316
      Cm = -0.0026     CD =  0.00685   =>   CDf =  0.00551    CDp =  0.00134

 Side 1  free  transition at x/c =  0.6966   20
 Side 2  free  transition at x/c =  0.0111    5

   7   rms: 0.1168E+00   max: -.1219E+01   D at    5  2   RLX: 0.410
       a = -2.300      CL = -0.2308
      Cm = -0.0023     CD =  0.00684   =>   CDf =  0.00549    CDp =  0.00135

 Side 1  free  transition at x/c =  0.6967   20
 Side 2  free  transition at x/c =  0.0120    5

   8   rms: 0.8647E-01   max: -.9713E+00   D at    5  2   RLX: 0.515
       a = -2.300      CL = -0.2319
      Cm = -0.0025     CD =  0.00679   =>   CDf =  0.00550    CDp =  0.00128

 Side 1  free  transition at x/c =  0.6967   20
 Side 2  free  transition at x/c =  0.0143    6

   9   rms: 0.3699E+00   max: 0.3944E+01   D at    5  2   RLX: 0.380
       a = -2.300      CL = -0.2315
      Cm = -0.0026     CD =  0.00685   =>   CDf =  0.00551    CDp =  0.00134

 Side 1  free  transition at x/c =  0.6966   20
 Side 2  free  transition at x/c =  0.0112    5

  10   rms: 0.1188E+00   max: -.1220E+01   D at    5  2   RLX: 0.410
       a = -2.300      CL = -0.2308
      Cm = -0.0023     CD =  0.00683   =>   CDf =  0.00549    CDp =  0.00135

 Side 1  free  transition at x/c =  0.6966   20
 Side 2  free  transition at x/c =  0.0121    5

  11   rms: 0.8049E-01   max: -.9511E+00   D at    5  2   RLX: 0.526
       a = -2.300      CL = -0.2318
      Cm = -0.0025     CD =  0.00680   =>   CDf =  0.00551    CDp =  0.00129

 Side 1  free  transition at x/c =  0.6966   20
 Side 2  free  transition at x/c =  0.0144    6

  12   rms: 0.3807E+00   max: 0.4083E+01   D at    5  2   RLX: 0.367
       a = -2.300      CL = -0.2314
      Cm = -0.0026     CD =  0.00685   =>   CDf =  0.00551    CDp =  0.00134

 Side 1  free  transition at x/c =  0.6966   20
 Side 2  free  transition at x/c =  0.0112    5

  13   rms: 0.1191E+00   max: -.1215E+01   D at    5  2   RLX: 0.412
       a = -2.300      CL = -0.2308
      Cm = -0.0023     CD =  0.00683   =>   CDf =  0.00549    CDp =  0.00134

 Side 1  free  transition at x/c =  0.6966   20
 Side 2  free  transition at x/c =  0.0122    5

  14   rms: 0.7813E-01   max: -.9448E+00   D at    5  2   RLX: 0.529
       a = -2.300      CL = -0.2318
      Cm = -0.0025     CD =  0.00680   =>   CDf =  0.00551    CDp =  0.00129

 Side 1  free  transition at x/c =  0.6966   20
 Side 2  free  transition at x/c =  0.0144    6

  15   rms: 0.3818E+00   max: 0.4098E+01   D at    5  2   RLX: 0.366
       a = -2.300      CL = -0.2314
      Cm = -0.0026     CD =  0.00685   =>   CDf =  0.00551    CDp =  0.00134

 Side 1  free  transition at x/c =  0.6966   20
 Side 2  free  transition at x/c =  0.0112    5

  16   rms: 0.1227E+00   max: -.1210E+01   D at    5  2   RLX: 0.413
       a = -2.300      CL = -0.2310
      Cm = -0.0023     CD =  0.00680   =>   CDf =  0.00549    CDp =  0.00131

 Side 1  free  transition at x/c =  0.6966   20
 Side 2  free  transition at x/c =  0.0122    5

  17   rms: 0.7858E-01   max: -.9466E+00   D at    5  2   RLX: 0.528
       a = -2.300      CL = -0.2319
      Cm = -0.0025     CD =  0.00680   =>   CDf =  0.00551    CDp =  0.00129

 Side 1  free  transition at x/c =  0.6966   20
 Side 2  free  transition at x/c =  0.0144    6

  18   rms: 0.3842E+00   max: 0.4126E+01   D at    5  2   RLX: 0.364
       a = -2.300      CL = -0.2315
      Cm = -0.0026     CD =  0.00685   =>   CDf =  0.00551    CDp =  0.00134

 Side 1  free  transition at x/c =  0.6966   20
 Side 2  free  transition at x/c =  0.0112    5

  19   rms: 0.1227E+00   max: -.1210E+01   D at    5  2   RLX: 0.413
       a = -2.300      CL = -0.2310
      Cm = -0.0023     CD =  0.00680   =>   CDf =  0.00549    CDp =  0.00131

 Side 1  free  transition at x/c =  0.6966   20
 Side 2  free  transition at x/c =  0.0122    5

  20   rms: 0.7820E-01   max: -.9456E+00   D at    5  2   RLX: 0.529
       a = -2.300      CL = -0.2320
      Cm = -0.0025     CD =  0.00680   =>   CDf =  0.00551    CDp =  0.00129

 Side 1  free  transition at x/c =  0.6966   20
 Side 2  free  transition at x/c =  0.0144    6

  21   rms: 0.3804E+00   max: 0.4080E+01   D at    5  2   RLX: 0.368
       a = -2.300      CL = -0.2315
      Cm = -0.0026     CD =  0.00685   =>   CDf =  0.00551    CDp =  0.00134

 Side 1  free  transition at x/c =  0.6966   20
 Side 2  free  transition at x/c =  0.0112    5

  22   rms: 0.1226E+00   max: -.1211E+01   D at    5  2   RLX: 0.413
       a = -2.300      CL = -0.2311
      Cm = -0.0023     CD =  0.00680   =>   CDf =  0.00549    CDp =  0.00131

 Side 1  free  transition at x/c =  0.6966   20
 Side 2  free  transition at x/c =  0.0122    5

  23   rms: 0.7886E-01   max: -.9474E+00   D at    5  2   RLX: 0.528
       a = -2.300      CL = -0.2320
      Cm = -0.0025     CD =  0.00680   =>   CDf =  0.00551    CDp =  0.00129

 Side 1  free  transition at x/c =  0.6966   20
 Side 2  free  transition at x/c =  0.0144    6

  24   rms: 0.3831E+00   max: 0.4112E+01   D at    5  2   RLX: 0.365
       a = -2.300      CL = -0.2315
      Cm = -0.0026     CD =  0.00685   =>   CDf =  0.00551    CDp =  0.00134

 Side 1  free  transition at x/c =  0.6966   20
 Side 2  free  transition at x/c =  0.0112    5

  25   rms: 0.1227E+00   max: -.1211E+01   D at    5  2   RLX: 0.413
       a = -2.300      CL = -0.2311
      Cm = -0.0023     CD =  0.00680   =>   CDf =  0.00549    CDp =  0.00131

 Side 1  free  transition at x/c =  0.6966   20
 Side 2  free  transition at x/c =  0.0122    5

  26   rms: 0.7846E-01   max: -.9464E+00   D at    5  2   RLX: 0.528
       a = -2.300      CL = -0.2320
      Cm = -0.0025     CD =  0.00680   =>   CDf =  0.00551    CDp =  0.00129

 Side 1  free  transition at x/c =  0.6966   20
 Side 2  free  transition at x/c =  0.0144    6

  27   rms: 0.3847E+00   max: 0.4133E+01   D at    5  2   RLX: 0.363
       a = -2.300      CL = -0.2315
      Cm = -0.0026     CD =  0.00685   =>   CDf =  0.00551    CDp =  0.00134

 Side 1  free  transition at x/c =  0.6966   20
 Side 2  free  transition at x/c =  0.0112    5

  28   rms: 0.1227E+00   max: -.1210E+01   D at    5  2   RLX: 0.413
       a = -2.300      CL = -0.2311
      Cm = -0.0023     CD =  0.00680   =>   CDf =  0.00549    CDp =  0.00131

 Side 1  free  transition at x/c =  0.6966   20
 Side 2  free  transition at x/c =  0.0122    5

  29   rms: 0.7811E-01   max: -.9454E+00   D at    5  2   RLX: 0.529
       a = -2.300      CL = -0.2320
      Cm = -0.0025     CD =  0.00680   =>   CDf =  0.00551    CDp =  0.00129

 Side 1  free  transition at x/c =  0.6966   20
 Side 2  free  transition at x/c =  0.0144    6

  30   rms: 0.3807E+00   max: 0.4084E+01   D at    5  2   RLX: 0.367
       a = -2.300      CL = -0.2315
      Cm = -0.0026     CD =  0.00685   =>   CDf =  0.00551    CDp =  0.00134

 Side 1  free  transition at x/c =  0.6966   20
 Side 2  free  transition at x/c =  0.0112    5

  31   rms: 0.1226E+00   max: -.1211E+01   D at    5  2   RLX: 0.413
       a = -2.300      CL = -0.2311
      Cm = -0.0023     CD =  0.00680   =>   CDf =  0.00549    CDp =  0.00131

 Side 1  free  transition at x/c =  0.6966   20
 Side 2  free  transition at x/c =  0.0122    5

  32   rms: 0.7881E-01   max: -.9473E+00   D at    5  2   RLX: 0.528
       a = -2.300      CL = -0.2320
      Cm = -0.0025     CD =  0.00680   =>   CDf =  0.00551    CDp =  0.00129

 Side 1  free  transition at x/c =  0.6966   20
 Side 2  free  transition at x/c =  0.0144    6

  33   rms: 0.3833E+00   max: 0.4114E+01   D at    5  2   RLX: 0.365
       a = -2.300      CL = -0.2315
      Cm = -0.0026     CD =  0.00685   =>   CDf =  0.00551    CDp =  0.00134

 Side 1  free  transition at x/c =  0.6966   20
 Side 2  free  transition at x/c =  0.0112    5

  34   rms: 0.1227E+00   max: -.1210E+01   D at    5  2   RLX: 0.413
       a = -2.300      CL = -0.2311
      Cm = -0.0023     CD =  0.00680   =>   CDf =  0.00549    CDp =  0.00131

 Side 1  free  transition at x/c =  0.6966   20
 Side 2  free  transition at x/c =  0.0122    5

  35   rms: 0.7843E-01   max: -.9463E+00   D at    5  2   RLX: 0.528
       a = -2.300      CL = -0.2320
      Cm = -0.0025     CD =  0.00680   =>   CDf =  0.00551    CDp =  0.00129

 Side 1  free  transition at x/c =  0.6966   20
 Side 2  free  transition at x/c =  0.0144    6

  36   rms: 0.3849E+00   max: 0.4134E+01   D at    5  2   RLX: 0.363
       a = -2.300      CL = -0.2315
      Cm = -0.0026     CD =  0.00685   =>   CDf =  0.00551    CDp =  0.00134

 Side 1  free  transition at x/c =  0.6966   20
 Side 2  free  transition at x/c =  0.0112    5

  37   rms: 0.1227E+00   max: -.1210E+01   D at    5  2   RLX: 0.413
       a = -2.300      CL = -0.2311
      Cm = -0.0023     CD =  0.00680   =>   CDf =  0.00549    CDp =  0.00131

 Side 1  free  transition at x/c =  0.6966   20
 Side 2  free  transition at x/c =  0.0122    5

  38   rms: 0.7809E-01   max: -.9454E+00   D at    5  2   RLX: 0.529
       a = -2.300      CL = -0.2320
      Cm = -0.0025     CD =  0.00680   =>   CDf =  0.00551    CDp =  0.00129

 Side 1  free  transition at x/c =  0.6966   20
 Side 2  free  transition at x/c =  0.0144    6

  39   rms: 0.3808E+00   max: 0.4085E+01   D at    5  2   RLX: 0.367
       a = -2.300      CL = -0.2315
      Cm = -0.0026     CD =  0.00685   =>   CDf =  0.00551    CDp =  0.00134

 Side 1  free  transition at x/c =  0.6966   20
 Side 2  free  transition at x/c =  0.0112    5

  40   rms: 0.1226E+00   max: -.1211E+01   D at    5  2   RLX: 0.413
       a = -2.300      CL = -0.2311
      Cm = -0.0023     CD =  0.00680   =>   CDf =  0.00549    CDp =  0.00131

 Side 1  free  transition at x/c =  0.6966   20
 Side 2  free  transition at x/c =  0.0122    5

  41   rms: 0.7879E-01   max: -.9473E+00   D at    5  2   RLX: 0.528
       a = -2.300      CL = -0.2320
      Cm = -0.0025     CD =  0.00680   =>   CDf =  0.00551    CDp =  0.00129

 Side 1  free  transition at x/c =  0.6966   20
 Side 2  free  transition at x/c =  0.0144    6

  42   rms: 0.3833E+00   max: 0.4115E+01   D at    5  2   RLX: 0.365
       a = -2.300      CL = -0.2315
      Cm = -0.0026     CD =  0.00685   =>   CDf =  0.00551    CDp =  0.00134

 Side 1  free  transition at x/c =  0.6966   20
 Side 2  free  transition at x/c =  0.0112    5

  43   rms: 0.1227E+00   max: -.1210E+01   D at    5  2   RLX: 0.413
       a = -2.300      CL = -0.2311
      Cm = -0.0023     CD =  0.00680   =>   CDf =  0.00549    CDp =  0.00131

 Side 1  free  transition at x/c =  0.6966   20
 Side 2  free  transition at x/c =  0.0122    5

  44   rms: 0.7842E-01   max: -.9463E+00   D at    5  2   RLX: 0.528
       a = -2.300      CL = -0.2320
      Cm = -0.0025     CD =  0.00680   =>   CDf =  0.00551    CDp =  0.00129

 Side 1  free  transition at x/c =  0.6966   20
 Side 2  free  transition at x/c =  0.0144    6

  45   rms: 0.3849E+00   max: 0.4134E+01   D at    5  2   RLX: 0.363
       a = -2.300      CL = -0.2315
      Cm = -0.0026     CD =  0.00685   =>   CDf =  0.00551    CDp =  0.00134

 Side 1  free  transition at x/c =  0.6966   20
 Side 2  free  transition at x/c =  0.0112    5

  46   rms: 0.1227E+00   max: -.1210E+01   D at    5  2   RLX: 0.413
       a = -2.300      CL = -0.2311
      Cm = -0.0023     CD =  0.00680   =>   CDf =  0.00549    CDp =  0.00131

 Side 1  free  transition at x/c =  0.6966   20
 Side 2  free  transition at x/c =  0.0122    5

  47   rms: 0.7809E-01   max: -.9454E+00   D at    5  2   RLX: 0.529
       a = -2.300      CL = -0.2320
      Cm = -0.0025     CD =  0.00680   =>   CDf =  0.00551    CDp =  0.00129

 Side 1  free  transition at x/c =  0.6966   20
 Side 2  free  transition at x/c =  0.0144    6

  48   rms: 0.3808E+00   max: 0.4085E+01   D at    5  2   RLX: 0.367
       a = -2.300      CL = -0.2315
      Cm = -0.0026     CD =  0.00685   =>   CDf =  0.00551    CDp =  0.00134

 Side 1  free  transition at x/c =  0.6966   20
 Side 2  free  transition at x/c =  0.0112    5

  49   rms: 0.1226E+00   max: -.1211E+01   D at    5  2   RLX: 0.413
       a = -2.300      CL = -0.2311
      Cm = -0.0023     CD =  0.00680   =>   CDf =  0.00549    CDp =  0.00131

 Side 1  free  transition at x/c =  0.6966   20
 Side 2  free  transition at x/c =  0.0122    5

  50   rms: 0.7879E-01   max: -.9473E+00   D at    5  2   RLX: 0.528
       a = -2.300      CL = -0.2320
      Cm = -0.0025     CD =  0.00680   =>   CDf =  0.00551    CDp =  0.00129

 Side 1  free  transition at x/c =  0.6966   20
 Side 2  free  transition at x/c =  0.0144    6

  51   rms: 0.3833E+00   max: 0.4115E+01   D at    5  2   RLX: 0.365
       a = -2.300      CL = -0.2315
      Cm = -0.0026     CD =  0.00685   =>   CDf =  0.00551    CDp =  0.00134

 Side 1  free  transition at x/c =  0.6966   20
 Side 2  free  transition at x/c =  0.0112    5

  52   rms: 0.1227E+00   max: -.1210E+01   D at    5  2   RLX: 0.413
       a = -2.300      CL = -0.2311
      Cm = -0.0023     CD =  0.00680   =>   CDf =  0.00549    CDp =  0.00131

 Side 1  free  transition at x/c =  0.6966   20
 Side 2  free  transition at x/c =  0.0122    5

  53   rms: 0.7842E-01   max: -.9463E+00   D at    5  2   RLX: 0.528
       a = -2.300      CL = -0.2320
      Cm = -0.0025     CD =  0.00680   =>   CDf =  0.00551    CDp =  0.00129

 Side 1  free  transition at x/c =  0.6966   20
 Side 2  free  transition at x/c =  0.0144    6

  54   rms: 0.3849E+00   max: 0.4134E+01   D at    5  2   RLX: 0.363
       a = -2.300      CL = -0.2315
      Cm = -0.0026     CD =  0.00685   =>   CDf =  0.00551    CDp =  0.00134

 Side 1  free  transition at x/c =  0.6966   20
 Side 2  free  transition at x/c =  0.0112    5

  55   rms: 0.1227E+00   max: -.1210E+01   D at    5  2   RLX: 0.413
       a = -2.300      CL = -0.2311
      Cm = -0.0023     CD =  0.00680   =>   CDf =  0.00549    CDp =  0.00131

 Side 1  free  transition at x/c =  0.6966   20
 Side 2  free  transition at x/c =  0.0122    5

  56   rms: 0.7809E-01   max: -.9454E+00   D at    5  2   RLX: 0.529
       a = -2.300      CL = -0.2320
      Cm = -0.0025     CD =  0.00680   =>   CDf =  0.00551    CDp =  0.00129

 Side 1  free  transition at x/c =  0.6966   20
 Side 2  free  transition at x/c =  0.0144    6

  57   rms: 0.3808E+00   max: 0.4085E+01   D at    5  2   RLX: 0.367
       a = -2.300      CL = -0.2315
      Cm = -0.0026     CD =  0.00685   =>   CDf =  0.00551    CDp =  0.00134

 Side 1  free  transition at x/c =  0.6966   20
 Side 2  free  transition at x/c =  0.0112    5

  58   rms: 0.1226E+00   max: -.1211E+01   D at    5  2   RLX: 0.413
       a = -2.300      CL = -0.2311
      Cm = -0.0023     CD =  0.00680   =>   CDf =  0.00549    CDp =  0.00131

 Side 1  free  transition at x/c =  0.6966   20
 Side 2  free  transition at x/c =  0.0122    5

  59   rms: 0.7879E-01   max: -.9473E+00   D at    5  2   RLX: 0.528
       a = -2.300      CL = -0.2320
      Cm = -0.0025     CD =  0.00680   =>   CDf =  0.00551    CDp =  0.00129

 Side 1  free  transition at x/c =  0.6966   20
 Side 2  free  transition at x/c =  0.0144    6

  60   rms: 0.3833E+00   max: 0.4115E+01   D at    5  2   RLX: 0.365
       a = -2.300      CL = -0.2315
      Cm = -0.0026     CD =  0.00685   =>   CDf =  0.00551    CDp =  0.00134

 Side 1  free  transition at x/c =  0.6966   20
 Side 2  free  transition at x/c =  0.0112    5

  61   rms: 0.1227E+00   max: -.1210E+01   D at    5  2   RLX: 0.413
       a = -2.300      CL = -0.2311
      Cm = -0.0023     CD =  0.00680   =>   CDf =  0.00549    CDp =  0.00131

 Side 1  free  transition at x/c =  0.6966   20
 Side 2  free  transition at x/c =  0.0122    5

  62   rms: 0.7842E-01   max: -.9463E+00   D at    5  2   RLX: 0.528
       a = -2.300      CL = -0.2320
      Cm = -0.0025     CD =  0.00680   =>   CDf =  0.00551    CDp =  0.00129

 Side 1  free  transition at x/c =  0.6966   20
 Side 2  free  transition at x/c =  0.0144    6

  63   rms: 0.3849E+00   max: 0.4134E+01   D at    5  2   RLX: 0.363
       a = -2.300      CL = -0.2315
      Cm = -0.0026     CD =  0.00685   =>   CDf =  0.00551    CDp =  0.00134

 Side 1  free  transition at x/c =  0.6966   20
 Side 2  free  transition at x/c =  0.0112    5

  64   rms: 0.1227E+00   max: -.1210E+01   D at    5  2   RLX: 0.413
       a = -2.300      CL = -0.2311
      Cm = -0.0023     CD =  0.00680   =>   CDf =  0.00549    CDp =  0.00131

 Side 1  free  transition at x/c =  0.6966   20
 Side 2  free  transition at x/c =  0.0122    5

  65   rms: 0.7809E-01   max: -.9454E+00   D at    5  2   RLX: 0.529
       a = -2.300      CL = -0.2320
      Cm = -0.0025     CD =  0.00680   =>   CDf =  0.00551    CDp =  0.00129

 Side 1  free  transition at x/c =  0.6966   20
 Side 2  free  transition at x/c =  0.0144    6

  66   rms: 0.3808E+00   max: 0.4085E+01   D at    5  2   RLX: 0.367
       a = -2.300      CL = -0.2315
      Cm = -0.0026     CD =  0.00685   =>   CDf =  0.00551    CDp =  0.00134

 Side 1  free  transition at x/c =  0.6966   20
 Side 2  free  transition at x/c =  0.0112    5

  67   rms: 0.1226E+00   max: -.1211E+01   D at    5  2   RLX: 0.413
       a = -2.300      CL = -0.2311
      Cm = -0.0023     CD =  0.00680   =>   CDf =  0.00549    CDp =  0.00131

 Side 1  free  transition at x/c =  0.6966   20
 Side 2  free  transition at x/c =  0.0122    5

  68   rms: 0.7879E-01   max: -.9473E+00   D at    5  2   RLX: 0.528
       a = -2.300      CL = -0.2320
      Cm = -0.0025     CD =  0.00680   =>   CDf =  0.00551    CDp =  0.00129

 Side 1  free  transition at x/c =  0.6966   20
 Side 2  free  transition at x/c =  0.0144    6

  69   rms: 0.3833E+00   max: 0.4115E+01   D at    5  2   RLX: 0.365
       a = -2.300      CL = -0.2315
      Cm = -0.0026     CD =  0.00685   =>   CDf =  0.00551    CDp =  0.00134

 Side 1  free  transition at x/c =  0.6966   20
 Side 2  free  transition at x/c =  0.0112    5

  70   rms: 0.1227E+00   max: -.1210E+01   D at    5  2   RLX: 0.413
       a = -2.300      CL = -0.2311
      Cm = -0.0023     CD =  0.00680   =>   CDf =  0.00549    CDp =  0.00131

 Side 1  free  transition at x/c =  0.6966   20
 Side 2  free  transition at x/c =  0.0122    5

  71   rms: 0.7842E-01   max: -.9463E+00   D at    5  2   RLX: 0.528
       a = -2.300      CL = -0.2320
      Cm = -0.0025     CD =  0.00680   =>   CDf =  0.00551    CDp =  0.00129

 Side 1  free  transition at x/c =  0.6966   20
 Side 2  free  transition at x/c =  0.0144    6

  72   rms: 0.3849E+00   max: 0.4134E+01   D at    5  2   RLX: 0.363
       a = -2.300      CL = -0.2315
      Cm = -0.0026     CD =  0.00685   =>   CDf =  0.00551    CDp =  0.00134

 Side 1  free  transition at x/c =  0.6966   20
 Side 2  free  transition at x/c =  0.0112    5

  73   rms: 0.1227E+00   max: -.1210E+01   D at    5  2   RLX: 0.413
       a = -2.300      CL = -0.2311
      Cm = -0.0023     CD =  0.00680   =>   CDf =  0.00549    CDp =  0.00131

 Side 1  free  transition at x/c =  0.6966   20
 Side 2  free  transition at x/c =  0.0122    5

  74   rms: 0.7809E-01   max: -.9454E+00   D at    5  2   RLX: 0.529
       a = -2.300      CL = -0.2320
      Cm = -0.0025     CD =  0.00680   =>   CDf =  0.00551    CDp =  0.00129

 Side 1  free  transition at x/c =  0.6966   20
 Side 2  free  transition at x/c =  0.0144    6

  75   rms: 0.3808E+00   max: 0.4085E+01   D at    5  2   RLX: 0.367
       a = -2.300      CL = -0.2315
      Cm = -0.0026     CD =  0.00685   =>   CDf =  0.00551    CDp =  0.00134

 Side 1  free  transition at x/c =  0.6966   20
 Side 2  free  transition at x/c =  0.0112    5

  76   rms: 0.1226E+00   max: -.1211E+01   D at    5  2   RLX: 0.413
       a = -2.300      CL = -0.2311
      Cm = -0.0023     CD =  0.00680   =>   CDf =  0.00549    CDp =  0.00131

 Side 1  free  transition at x/c =  0.6966   20
 Side 2  free  transition at x/c =  0.0122    5

  77   rms: 0.7879E-01   max: -.9473E+00   D at    5  2   RLX: 0.528
       a = -2.300      CL = -0.2320
      Cm = -0.0025     CD =  0.00680   =>   CDf =  0.00551    CDp =  0.00129

 Side 1  free  transition at x/c =  0.6966   20
 Side 2  free  transition at x/c =  0.0144    6

  78   rms: 0.3833E+00   max: 0.4115E+01   D at    5  2   RLX: 0.365
       a = -2.300      CL = -0.2315
      Cm = -0.0026     CD =  0.00685   =>   CDf =  0.00551    CDp =  0.00134

 Side 1  free  transition at x/c =  0.6966   20
 Side 2  free  transition at x/c =  0.0112    5

  79   rms: 0.1227E+00   max: -.1210E+01   D at    5  2   RLX: 0.413
       a = -2.300      CL = -0.2311
      Cm = -0.0023     CD =  0.00680   =>   CDf =  0.00549    CDp =  0.00131

 Side 1  free  transition at x/c =  0.6966   20
 Side 2  free  transition at x/c =  0.0122    5

  80   rms: 0.7842E-01   max: -.9463E+00   D at    5  2   RLX: 0.528
       a = -2.300      CL = -0.2320
      Cm = -0.0025     CD =  0.00680   =>   CDf =  0.00551    CDp =  0.00129

 Side 1  free  transition at x/c =  0.6966   20
 Side 2  free  transition at x/c =  0.0144    6

  81   rms: 0.3849E+00   max: 0.4134E+01   D at    5  2   RLX: 0.363
       a = -2.300      CL = -0.2315
      Cm = -0.0026     CD =  0.00685   =>   CDf =  0.00551    CDp =  0.00134

 Side 1  free  transition at x/c =  0.6966   20
 Side 2  free  transition at x/c =  0.0112    5

  82   rms: 0.1227E+00   max: -.1210E+01   D at    5  2   RLX: 0.413
       a = -2.300      CL = -0.2311
      Cm = -0.0023     CD =  0.00680   =>   CDf =  0.00549    CDp =  0.00131

 Side 1  free  transition at x/c =  0.6966   20
 Side 2  free  transition at x/c =  0.0122    5

  83   rms: 0.7809E-01   max: -.9454E+00   D at    5  2   RLX: 0.529
       a = -2.300      CL = -0.2320
      Cm = -0.0025     CD =  0.00680   =>   CDf =  0.00551    CDp =  0.00129

 Side 1  free  transition at x/c =  0.6966   20
 Side 2  free  transition at x/c =  0.0144    6

  84   rms: 0.3808E+00   max: 0.4085E+01   D at    5  2   RLX: 0.367
       a = -2.300      CL = -0.2315
      Cm = -0.0026     CD =  0.00685   =>   CDf =  0.00551    CDp =  0.00134

 Side 1  free  transition at x/c =  0.6966   20
 Side 2  free  transition at x/c =  0.0112    5

  85   rms: 0.1226E+00   max: -.1211E+01   D at    5  2   RLX: 0.413
       a = -2.300      CL = -0.2311
      Cm = -0.0023     CD =  0.00680   =>   CDf =  0.00549    CDp =  0.00131

 Side 1  free  transition at x/c =  0.6966   20
 Side 2  free  transition at x/c =  0.0122    5

  86   rms: 0.7879E-01   max: -.9473E+00   D at    5  2   RLX: 0.528
       a = -2.300      CL = -0.2320
      Cm = -0.0025     CD =  0.00680   =>   CDf =  0.00551    CDp =  0.00129

 Side 1  free  transition at x/c =  0.6966   20
 Side 2  free  transition at x/c =  0.0144    6

  87   rms: 0.3833E+00   max: 0.4115E+01   D at    5  2   RLX: 0.365
       a = -2.300      CL = -0.2315
      Cm = -0.0026     CD =  0.00685   =>   CDf =  0.00551    CDp =  0.00134

 Side 1  free  transition at x/c =  0.6966   20
 Side 2  free  transition at x/c =  0.0112    5

  88   rms: 0.1227E+00   max: -.1210E+01   D at    5  2   RLX: 0.413
       a = -2.300      CL = -0.2311
      Cm = -0.0023     CD =  0.00680   =>   CDf =  0.00549    CDp =  0.00131

 Side 1  free  transition at x/c =  0.6966   20
 Side 2  free  transition at x/c =  0.0122    5

  89   rms: 0.7842E-01   max: -.9463E+00   D at    5  2   RLX: 0.528
       a = -2.300      CL = -0.2320
      Cm = -0.0025     CD =  0.00680   =>   CDf =  0.00551    CDp =  0.00129

 Side 1  free  transition at x/c =  0.6966   20
 Side 2  free  transition at x/c =  0.0144    6

  90   rms: 0.3849E+00   max: 0.4134E+01   D at    5  2   RLX: 0.363
       a = -2.300      CL = -0.2315
      Cm = -0.0026     CD =  0.00685   =>   CDf =  0.00551    CDp =  0.00134

 Side 1  free  transition at x/c =  0.6966   20
 Side 2  free  transition at x/c =  0.0112    5

  91   rms: 0.1227E+00   max: -.1210E+01   D at    5  2   RLX: 0.413
       a = -2.300      CL = -0.2311
      Cm = -0.0023     CD =  0.00680   =>   CDf =  0.00549    CDp =  0.00131

 Side 1  free  transition at x/c =  0.6966   20
 Side 2  free  transition at x/c =  0.0122    5

  92   rms: 0.7809E-01   max: -.9454E+00   D at    5  2   RLX: 0.529
       a = -2.300      CL = -0.2320
      Cm = -0.0025     CD =  0.00680   =>   CDf =  0.00551    CDp =  0.00129

 Side 1  free  transition at x/c =  0.6966   20
 Side 2  free  transition at x/c =  0.0144    6

  93   rms: 0.3808E+00   max: 0.4085E+01   D at    5  2   RLX: 0.367
       a = -2.300      CL = -0.2315
      Cm = -0.0026     CD =  0.00685   =>   CDf =  0.00551    CDp =  0.00134

 Side 1  free  transition at x/c =  0.6966   20
 Side 2  free  transition at x/c =  0.0112    5

  94   rms: 0.1226E+00   max: -.1211E+01   D at    5  2   RLX: 0.413
       a = -2.300      CL = -0.2311
      Cm = -0.0023     CD =  0.00680   =>   CDf =  0.00549    CDp =  0.00131

 Side 1  free  transition at x/c =  0.6966   20
 Side 2  free  transition at x/c =  0.0122    5

  95   rms: 0.7879E-01   max: -.9473E+00   D at    5  2   RLX: 0.528
       a = -2.300      CL = -0.2320
      Cm = -0.0025     CD =  0.00680   =>   CDf =  0.00551    CDp =  0.00129

 Side 1  free  transition at x/c =  0.6966   20
 Side 2  free  transition at x/c =  0.0144    6

  96   rms: 0.3833E+00   max: 0.4115E+01   D at    5  2   RLX: 0.365
       a = -2.300      CL = -0.2315
      Cm = -0.0026     CD =  0.00685   =>   CDf =  0.00551    CDp =  0.00134

 Side 1  free  transition at x/c =  0.6966   20
 Side 2  free  transition at x/c =  0.0112    5

  97   rms: 0.1227E+00   max: -.1210E+01   D at    5  2   RLX: 0.413
       a = -2.300      CL = -0.2311
      Cm = -0.0023     CD =  0.00680   =>   CDf =  0.00549    CDp =  0.00131

 Side 1  free  transition at x/c =  0.6966   20
 Side 2  free  transition at x/c =  0.0122    5

  98   rms: 0.7842E-01   max: -.9463E+00   D at    5  2   RLX: 0.528
       a = -2.300      CL = -0.2320
      Cm = -0.0025     CD =  0.00680   =>   CDf =  0.00551    CDp =  0.00129

 Side 1  free  transition at x/c =  0.6966   20
 Side 2  free  transition at x/c =  0.0144    6

  99   rms: 0.3849E+00   max: 0.4134E+01   D at    5  2   RLX: 0.363
       a = -2.300      CL = -0.2315
      Cm = -0.0026     CD =  0.00685   =>   CDf =  0.00551    CDp =  0.00134

 Side 1  free  transition at x/c =  0.6966   20
 Side 2  free  transition at x/c =  0.0112    5

 100   rms: 0.1227E+00   max: -.1210E+01   D at    5  2   RLX: 0.413
       a = -2.300      CL = -0.2311
      Cm = -0.0023     CD =  0.00680   =>   CDf =  0.00549    CDp =  0.00131
 VISCAL:  Convergence failed

.OPERva   c>  
Enter angle of attack (deg)   r>   Calculating wake trajectory ...
 Calculating source influence matrix ...

 Solving BL system ...

 Side 1  free  transition at x/c =  0.6966   20
 Side 2  free  transition at x/c =  0.0122    5

   1   rms: 0.8143E-01   max: -.9038E+00   D at    5  2   RLX: 0.553
       a = -2.200      CL = -0.2258
      Cm = -0.0025     CD =  0.00678   =>   CDf =  0.00551    CDp =  0.00127

 Side 1  free  transition at x/c =  0.6956   20
 Side 2  free  transition at x/c =  0.0132    6

   2   rms: 0.4804E+00   max: -.5790E+01   D at    5  2   RLX: 0.086
       a = -2.200      CL = -0.2252
      Cm = -0.0024     CD =  0.00677   =>   CDf =  0.00552    CDp =  0.00125

 Side 1  free  transition at x/c =  0.6956   20
 Side 2  free  transition at x/c =  0.0228    6

   3   rms: 0.1940E+01   max: -.2884E+02   C at    6  2   RLX: 0.017
       a = -2.200      CL = -0.2256
      Cm = -0.0025     CD =  0.00673   =>   CDf =  0.00547    CDp =  0.00126

 Side 1  free  transition at x/c =  0.6955   20
 Side 2  free  transition at x/c =  0.0246    6

   4   rms: 0.2804E+01   max: -.4327E+02   C at    6  2   RLX: 0.012
       a = -2.200      CL = -0.2256
      Cm = -0.0025     CD =  0.00672   =>   CDf =  0.00544    CDp =  0.00127

 MRCHDU: Convergence failed at   7  side 2    Res =  0.9683E-01
 Side 1  free  transition at x/c =  0.6955   20
 Side 2  free  transition at x/c =  0.0719    8

   5   rms: 0.5293E+00   max: -.6822E+01   C at    8  2   RLX: 0.073
       a = -2.200      CL = -0.2256
      Cm = -0.0024     CD =  0.00645   =>   CDf =  0.00529    CDp =  0.00116

 Side 1  free  transition at x/c =  0.6955   20
 Side 2  free  transition at x/c =  0.0554    8

   6   rms: 0.2035E+00   max: 0.1250E+01   D at    8  2   RLX: 0.489
       a = -2.200      CL = -0.2262
      Cm = -0.0022     CD =  0.00634   =>   CDf =  0.00535    CDp =  0.00100

 Side 1  free  transition at x/c =  0.6952   20
 Side 2  free  transition at x/c =  0.1544   11

   7   rms: 0.1070E+00   max: 0.5649E+00   C at   11  2   RLX: 0.968
       a = -2.200      CL = -0.2312
      Cm = -0.0013     CD =  0.00556   =>   CDf =  0.00495    CDp =  0.00061

 Side 1  free  transition at x/c =  0.6949   20
 Side 2  free  transition at x/c =  0.0982    9

   8   rms: 0.1310E+00   max: 0.1996E+01   C at    9  2   RLX: 0.751
       a = -2.200      CL = -0.2262
      Cm = -0.0020     CD =  0.00634   =>   CDf =  0.00515    CDp =  0.00119

 Side 1  free  transition at x/c =  0.6948   20
 Side 2  free  transition at x/c =  0.0845    9

   9   rms: 0.7381E-02   max: 0.5467E-01   D at    4  2
       a = -2.200      CL = -0.2246
      Cm = -0.0022     CD =  0.00636   =>   CDf =  0.00522    CDp =  0.00114

 Side 1  free  transition at x/c =  0.6947   20
 Side 2  free  transition at x/c =  0.0925    9

  10   rms: 0.2274E-02   max: 0.2095E-01   D at    4  2
       a = -2.200      CL = -0.2251
      Cm = -0.0021     CD =  0.00630   =>   CDf =  0.00518    CDp =  0.00112

 Side 1  free  transition at x/c =  0.6948   20
 Side 2  free  transition at x/c =  0.0879    9

  11   rms: 0.8289E-03   max: 0.4917E-02   D at    9  2
       a = -2.200      CL = -0.2247
      Cm = -0.0022     CD =  0.00634   =>   CDf =  0.00520    CDp =  0.00114

 Side 1  free  transition at x/c =  0.6947   20
 Side 2  free  transition at x/c =  0.0881    9

  12   rms: 0.4910E-05   max: 0.3138E-04   D at    9  2
       a = -2.200      CL = -0.2247
      Cm = -0.0022     CD =  0.00634   =>   CDf =  0.00520    CDp =  0.00114
 plradd ia,ip,cpol           28          25  4.99999989E-03

 Point added to stored polar  1
 Point written to save file  XFOIL_Polar_Output.dat                          
 Dump file unspecified or not available

.OPERva   c>  
Enter angle of attack (deg)   r>   Calculating wake trajectory ...
 Calculating source influence matrix ...

 Solving BL system ...

 Side 1  free  transition at x/c =  0.6947   20
 Side 2  free  transition at x/c =  0.0881    9

   1   rms: 0.1214E+00   max: 0.8171E+00   D at    9  2   RLX: 0.705
       a = -2.100      CL = -0.2193
      Cm = -0.0019     CD =  0.00603   =>   CDf =  0.00520    CDp =  0.00082

 Side 1  free  transition at x/c =  0.6930   20
 Side 2  free  transition at x/c =  0.0820    9

   2   rms: 0.8887E-02   max: 0.3079E-01   D at    9  2
       a = -2.100      CL = -0.2132
      Cm = -0.0023     CD =  0.00637   =>   CDf =  0.00524    CDp =  0.00113

 Side 1  free  transition at x/c =  0.6922   20
 Side 2  free  transition at x/c =  0.0846    9

   3   rms: 0.4350E-03   max: -.2973E-02   D at    9  2
       a = -2.100      CL = -0.2132
      Cm = -0.0023     CD =  0.00636   =>   CDf =  0.00523    CDp =  0.00114

 Side 1  free  transition at x/c =  0.6922   20
 Side 2  free  transition at x/c =  0.0844    9

   4   rms: 0.2778E-05   max: -.1692E-04   D at    9  2
       a = -2.100      CL = -0.2132
      Cm = -0.0023     CD =  0.00636   =>   CDf =  0.00523    CDp =  0.00114
 plradd ia,ip,cpol           29          25  4.99999989E-03

 Point added to stored polar  1
 Point written to save file  XFOIL_Polar_Output.dat                          
 Dump file unspecified or not available

.OPERva   c>  
Enter angle of attack (deg)   r>   Calculating wake trajectory ...
 Calculating source influence matrix ...

 Solving BL system ...

 Side 1  free  transition at x/c =  0.6922   20
 Side 2  free  transition at x/c =  0.0844    9

   1   rms: 0.2263E-01   max: -.9975E-01   T at   10  2
       a = -2.000      CL = -0.2025
      Cm = -0.0023     CD =  0.00629   =>   CDf =  0.00523    CDp =  0.00106

 Side 1  free  transition at x/c =  0.6890   20
 Side 2  free  transition at x/c =  0.1103   10

   2   rms: 0.3254E-02   max: -.1819E-01   C at   10  2
       a = -2.000      CL = -0.2032
      Cm = -0.0022     CD =  0.00621   =>   CDf =  0.00514    CDp =  0.00107

 Side 1  free  transition at x/c =  0.6891   20
 Side 2  free  transition at x/c =  0.1056   10

   3   rms: 0.1077E-03   max: -.7836E-03   C at   10  2
       a = -2.000      CL = -0.2032
      Cm = -0.0022     CD =  0.00621   =>   CDf =  0.00515    CDp =  0.00106

 Side 1  free  transition at x/c =  0.6891   20
 Side 2  free  transition at x/c =  0.1054   10

   4   rms: 0.7667E-06   max: -.4871E-05   C at   10  2
       a = -2.000      CL = -0.2032
      Cm = -0.0022     CD =  0.00621   =>   CDf =  0.00515    CDp =  0.00106
 plradd ia,ip,cpol           30          25  4.99999989E-03

 Point added to stored polar  1
 Point written to save file  XFOIL_Polar_Output.dat                          
 Dump file unspecified or not available

.OPERva   c>  
Enter angle of attack (deg)   r>   Calculating wake trajectory ...
 Calculating source influence matrix ...

 Solving BL system ...

 Side 1  free  transition at x/c =  0.6891   20
 Side 2  free  transition at x/c =  0.1054   10

   1   rms: 0.2296E-01   max: 0.1217E+00   C at   10  2
       a = -1.900      CL = -0.1924
      Cm = -0.0022     CD =  0.00615   =>   CDf =  0.00515    CDp =  0.00100

 Side 1  free  transition at x/c =  0.6856   20
 Side 2  free  transition at x/c =  0.1328   10

   2   rms: 0.6676E-02   max: 0.3884E-01   T at   11  2
       a = -1.900      CL = -0.1928
      Cm = -0.0021     CD =  0.00611   =>   CDf =  0.00506    CDp =  0.00105

 Side 1  free  transition at x/c =  0.6856   20
 Side 2  free  transition at x/c =  0.1292   10

   3   rms: 0.1394E-03   max: 0.8680E-03   T at   11  2
       a = -1.900      CL = -0.1928
      Cm = -0.0021     CD =  0.00611   =>   CDf =  0.00508    CDp =  0.00103

 Side 1  free  transition at x/c =  0.6856   20
 Side 2  free  transition at x/c =  0.1291   10

   4   rms: 0.7105E-06   max: 0.3626E-05   C at   13  2
       a = -1.900      CL = -0.1928
      Cm = -0.0021     CD =  0.00611   =>   CDf =  0.00508    CDp =  0.00103
 plradd ia,ip,cpol           31          25  4.99999989E-03

 Point added to stored polar  1
 Point written to save file  XFOIL_Polar_Output.dat                          
 Dump file unspecified or not available

.OPERva   c>  
Enter angle of attack (deg)   r>   Calculating wake trajectory ...
 Calculating source influence matrix ...

 Solving BL system ...

 Side 1  free  transition at x/c =  0.6856   20
 Side 2  free  transition at x/c =  0.1291   10

   1   rms: 0.3488E-01   max: -.1909E+00   T at   11  2
       a = -1.800      CL = -0.1827
      Cm = -0.0020     CD =  0.00597   =>   CDf =  0.00508    CDp =  0.00089

 Side 1  free  transition at x/c =  0.6819   20
 Side 2  free  transition at x/c =  0.1465   10

   2   rms: 0.1063E-02   max: 0.1317E-01   C at   10  2
       a = -1.800      CL = -0.1826
      Cm = -0.0020     CD =  0.00599   =>   CDf =  0.00501    CDp =  0.00097

 Side 1  free  transition at x/c =  0.6819   20
 Side 2  free  transition at x/c =  0.1463   10

   3   rms: 0.2718E-04   max: 0.4045E-03   C at   10  2
       a = -1.800      CL = -0.1826
      Cm = -0.0020     CD =  0.00599   =>   CDf =  0.00501    CDp =  0.00097
 plradd ia,ip,cpol           32          25  4.99999989E-03

 Point added to stored polar  1
 Point written to save file  XFOIL_Polar_Output.dat                          
 Dump file unspecified or not available

.OPERva   c>  
Enter angle of attack (deg)   r>   Calculating wake trajectory ...
 Calculating source influence matrix ...

 Solving BL system ...

 Side 1  free  transition at x/c =  0.6819   20
 Side 2  free  transition at x/c =  0.1463   10

   1   rms: 0.2389E-01   max: -.2615E+00   C at   10  2
       a = -1.700      CL = -0.1716
      Cm = -0.0021     CD =  0.00597   =>   CDf =  0.00501    CDp =  0.00095

 Side 1  free  transition at x/c =  0.6762   20
 Side 2  free  transition at x/c =  0.1518   11

   2   rms: 0.1074E-02   max: 0.7512E-02   D at   20  1
       a = -1.700      CL = -0.1717
      Cm = -0.0020     CD =  0.00597   =>   CDf =  0.00502    CDp =  0.00095

 Side 1  free  transition at x/c =  0.6767   20
 Side 2  free  transition at x/c =  0.1505   11

   3   rms: 0.1887E-04   max: 0.8605E-04   D at   27  2
       a = -1.700      CL = -0.1717
      Cm = -0.0020     CD =  0.00597   =>   CDf =  0.00502    CDp =  0.00095
 plradd ia,ip,cpol           33          25  4.99999989E-03

 Point added to stored polar  1
 Point written to save file  XFOIL_Polar_Output.dat                          
 Dump file unspecified or not available

.OPERva   c>  
Enter angle of attack (deg)   r>   Calculating wake trajectory ...
 Calculating source influence matrix ...

 Solving BL system ...

 Side 1  free  transition at x/c =  0.6767   20
 Side 2  free  transition at x/c =  0.1504   11

   1   rms: 0.1847E-01   max: -.2412E-01   n at   10  2
       a = -1.600      CL = -0.1609
      Cm = -0.0020     CD =  0.00597   =>   CDf =  0.00502    CDp =  0.00095

 Side 1  free  transition at x/c =  0.6678   20
 Side 2  free  transition at x/c =  0.1720   11

   2   rms: 0.2714E-02   max: 0.1661E-01   T at   12  2
       a = -1.600      CL = -0.1612
      Cm = -0.0020     CD =  0.00594   =>   CDf =  0.00500    CDp =  0.00093

 Side 1  free  transition at x/c =  0.6680   20
 Side 2  free  transition at x/c =  0.1699   11

   3   rms: 0.2222E-04   max: -.1204E-03   D at   11  2
       a = -1.600      CL = -0.1613
      Cm = -0.0020     CD =  0.00594   =>   CDf =  0.00501    CDp =  0.00092
 plradd ia,ip,cpol           34          25  4.99999989E-03

 Point added to stored polar  1
 Point written to save file  XFOIL_Polar_Output.dat                          
 Dump file unspecified or not available

.OPERva   c>  
Enter angle of attack (deg)   r>   Calculating wake trajectory ...
 Calculating source influence matrix ...

 Solving BL system ...

 Side 1  free  transition at x/c =  0.6680   20
 Side 2  free  transition at x/c =  0.1699   11

   1   rms: 0.2922E-01   max: -.1289E+00   T at   12  2
       a = -1.500      CL = -0.1512
      Cm = -0.0018     CD =  0.00586   =>   CDf =  0.00501    CDp =  0.00085

 Side 1  free  transition at x/c =  0.6566   20
 Side 2  free  transition at x/c =  0.1895   11

   2   rms: 0.3321E-02   max: 0.4103E-01   C at   11  2
       a = -1.500      CL = -0.1513
      Cm = -0.0018     CD =  0.00584   =>   CDf =  0.00495    CDp =  0.00089

 Side 1  free  transition at x/c =  0.6561   20
 Side 2  free  transition at x/c =  0.1881   11

   3   rms: 0.1232E-04   max: 0.1356E-03   C at   11  2
       a = -1.500      CL = -0.1513
      Cm = -0.0018     CD =  0.00584   =>   CDf =  0.00496    CDp =  0.00088
 plradd ia,ip,cpol           35          25  4.99999989E-03

 Point added to stored polar  1
 Point written to save file  XFOIL_Polar_Output.dat                          
 Dump file unspecified or not available

.OPERva   c>  
Enter angle of attack (deg)   r>   Calculating wake trajectory ...
 Calculating source influence matrix ...

 Solving BL system ...

 Side 1  free  transition at x/c =  0.6561   20
[...]

  50   rms: 0.2626E+03   max: -.2357E+04   C at   29  2   RLX: 0.000
       a = 15.000      CL =  5.7908
      Cm = -1.1774     CD =  0.00000   =>   CDf =  0.01727    CDp = -0.01727

 MRCHDU: Convergence failed at  28  side 2    Res =  0.2393E-01
 MRCHDU: Convergence failed at  29  side 2    Res =  0.9711E-01
 Side 1  free  transition at x/c =  0.0049    8
 Side 2  free  transition at x/c =  0.9495   20

  51   rms: 0.2886E+03   max: -.2599E+04   C at   29  2   RLX: 0.000
       a = 15.000      CL =  5.7898
      Cm = -1.1771     CD =  0.00000   =>   CDf =  0.01727    CDp = -0.01727

 MRCHDU: Convergence failed at  28  side 2    Res =  0.7368E-01
 MRCHDU: Convergence failed at  29  side 2    Res =  0.9820E-01
 Side 1  free  transition at x/c =  0.0049    8
 Side 2  free  transition at x/c =  0.9495   20

  52   rms: 0.3152E+03   max: -.2836E+04   C at   29  2   RLX: 0.000
       a = 15.000      CL =  5.7888
      Cm = -1.1768     CD =  0.00000   =>   CDf =  0.01726    CDp = -0.01726

 MRCHDU: Convergence failed at  28  side 2    Res =  0.1231E+00
 Side 1  free  transition at x/c =  0.0049    8
 Side 2  free  transition at x/c =  0.9495   20

  53   rms: 0.3490E+03   max: -.3206E+04   C at   29  2   RLX: 0.000
       a = 15.000      CL =  5.7880
      Cm = -1.1766     CD =  0.00000   =>   CDf =  0.01726    CDp = -0.01726

 MRCHDU: Convergence failed at  28  side 2    Res =  0.2270E+00
 Side 1  free  transition at x/c =  0.0049    8
 Side 2  free  transition at x/c =  0.9495   20

  54   rms: 0.3734E+03   max: -.3415E+04   C at   29  2   RLX: 0.000
       a = 15.000      CL =  5.7872
      Cm = -1.1763     CD =  0.00000   =>   CDf =  0.01726    CDp = -0.01726

 MRCHDU: Convergence failed at  28  side 2    Res =  0.2746E+00
 Side 1  free  transition at x/c =  0.0049    8
 Side 2  free  transition at x/c =  0.9495   20

  55   rms: 0.3997E+03   max: -.3636E+04   C at   29  2   RLX: 0.000
       a = 15.000      CL =  5.7865
      Cm = -1.1761     CD =  0.00000   =>   CDf =  0.01725    CDp = -0.01725

 MRCHDU: Convergence failed at  28  side 2    Res =  0.3223E+00
 Side 1  free  transition at x/c =  0.0049    8
 Side 2  free  transition at x/c =  0.9495   20

  56   rms: 0.4278E+03   max: -.3868E+04   C at   29  2   RLX: 0.000
       a = 15.000      CL =  5.7858
      Cm = -1.1759     CD =  0.00000   =>   CDf =  0.01725    CDp = -0.01725

 MRCHDU: Convergence failed at  28  side 2    Res =  0.3702E+00
 Side 1  free  transition at x/c =  0.0049    8
 Side 2  free  transition at x/c =  0.9495   20

  57   rms: 0.4586E+03   max: -.4119E+04   C at   29  2   RLX: 0.000
       a = 15.000      CL =  5.7851
      Cm = -1.1757     CD =  0.00000   =>   CDf =  0.01725    CDp = -0.01725

 MRCHDU: Convergence failed at  28  side 2    Res =  0.4182E+00
 Side 1  free  transition at x/c =  0.0049    8
 Side 2  free  transition at x/c =  0.9495   20

  58   rms: 0.4915E+03   max: -.4383E+04   C at   29  2   RLX: 0.000
       a = 15.000      CL =  5.7845
      Cm = -1.1755     CD =  0.00000   =>   CDf =  0.01725    CDp = -0.01725

 MRCHDU: Convergence failed at  28  side 2    Res =  0.4664E+00
 Side 1  free  transition at x/c =  0.0049    8
 Side 2  free  transition at x/c =  0.9495   20

  59   rms: 0.5276E+03   max: -.4671E+04   C at   29  2   RLX: 0.000
       a = 15.000      CL =  5.7840
      Cm = -1.1754     CD =  0.00000   =>   CDf =  0.01725    CDp = -0.01725

 MRCHDU: Convergence failed at  28  side 2    Res =  0.5148E+00
 Side 1  free  transition at x/c =  0.0049    8
 Side 2  free  transition at x/c =  0.9495   20

  60   rms: 0.5671E+03   max: -.4982E+04   C at   29  2   RLX: 0.000
       a = 15.000      CL =  5.7834
      Cm = -1.1752     CD =  0.00000   =>   CDf =  0.01724    CDp = -0.01724

 MRCHDU: Convergence failed at  28  side 2    Res =  0.5633E+00
 MRCHDU: Convergence failed at  29  side 2    Res =  0.8879E-02
 Side 1  free  transition at x/c =  0.0049    8
 Side 2  free  transition at x/c =  0.9495   20

  61   rms: 0.6101E+03   max: -.5321E+04   C at   29  2   RLX: 0.000
       a = 15.000      CL =  5.7829
      Cm = -1.1750     CD =  0.00000   =>   CDf =  0.01724    CDp = -0.01724

 MRCHDU: Convergence failed at  28  side 2    Res =  0.6120E+00
 MRCHDU: Convergence failed at  29  side 2    Res =  0.4868E-01
 Side 1  free  transition at x/c =  0.0049    8
 Side 2  free  transition at x/c =  0.9495   20

  62   rms: 0.6572E+03   max: -.5699E+04   C at   29  2   RLX: 0.000
       a = 15.000      CL =  5.7824
      Cm = -1.1749     CD =  0.00000   =>   CDf =  0.01724    CDp = -0.01724

 MRCHDU: Convergence failed at  28  side 2    Res =  0.6606E+00
 MRCHDU: Convergence failed at  29  side 2    Res =  0.8880E-01
 Side 1  free  transition at x/c =  0.0049    8
 Side 2  free  transition at x/c =  0.9495   20

  63   rms: 0.7079E+03   max: -.6103E+04   C at   29  2   RLX: 0.000
       a = 15.000      CL =  5.7820
      Cm = -1.1748     CD =  0.00000   =>   CDf =  0.01724    CDp = -0.01724

 MRCHDU: Convergence failed at  27  side 2    Res =  0.2403E-01
 MRCHDU: Convergence failed at  28  side 2    Res =  0.6852E+00
 MRCHDU: Convergence failed at  29  side 2    Res =  0.1052E+00
 Side 1  free  transition at x/c =  0.0049    8
 Side 2  free  transition at x/c =  0.9495   20

  64   rms: 0.4656E+04   max: 0.4631E+05   C at   29  2   RLX: 0.000
       a = 15.000      CL =  5.7818
      Cm = -1.1747     CD =  0.00000   =>   CDf =  0.01724    CDp = -0.01724

 MRCHDU: Convergence failed at  28  side 2    Res =  0.6057E+00
 MRCHDU: Convergence failed at  29  side 2    Res =  0.8567E+00
 Side 1  free  transition at x/c =  0.0049    8
 Side 2  free  transition at x/c =  0.9495   20

  65   rms: 0.4236E+04   max: 0.4321E+05   C at   29  2   RLX: 0.000
       a = 15.000      CL =  5.7815
      Cm = -1.1746     CD =  0.00000   =>   CDf =  0.01724    CDp = -0.01724

 MRCHDU: Convergence failed at  28  side 2    Res =  0.5043E+00
 MRCHDU: Convergence failed at  29  side 2    Res =  0.7469E+00
 Side 1  free  transition at x/c =  0.0049    8
 Side 2  free  transition at x/c =  0.9495   20

  66   rms: 0.3956E+04   max: 0.4131E+05   C at   29  2   RLX: 0.000
       a = 15.000      CL =  5.7813
      Cm = -1.1746     CD =  0.00000   =>   CDf =  0.01724    CDp = -0.01724

 MRCHDU: Convergence failed at  28  side 2    Res =  0.4053E+00
 MRCHDU: Convergence failed at  29  side 2    Res =  0.6390E+00
 Side 1  free  transition at x/c =  0.0049    8
 Side 2  free  transition at x/c =  0.9495   20

  67   rms: 0.3840E+04   max: 0.4096E+05   C at   29  2   RLX: 0.000
       a = 15.000      CL =  5.7810
      Cm = -1.1745     CD =  0.00000   =>   CDf =  0.01724    CDp = -0.01724

 MRCHDU: Convergence failed at  28  side 2    Res =  0.3083E+00
 MRCHDU: Convergence failed at  29  side 2    Res =  0.5330E+00
 Side 1  free  transition at x/c =  0.0049    8
 Side 2  free  transition at x/c =  0.9495   20

  68   rms: 0.4012E+04   max: 0.4356E+05   C at   29  2   RLX: 0.000
       a = 15.000      CL =  5.7807
      Cm = -1.1744     CD =  0.00000   =>   CDf =  0.01724    CDp = -0.01724

 MRCHDU: Convergence failed at  28  side 2    Res =  0.2133E+00
 MRCHDU: Convergence failed at  29  side 2    Res =  0.4286E+00
 Side 1  free  transition at x/c =  0.0049    8
 Side 2  free  transition at x/c =  0.9495   20

  69   rms: 0.4975E+04   max: 0.5476E+05   C at   29  2   RLX: 0.000
       a = 15.000      CL =  5.7804
      Cm = -1.1743     CD =  0.00000   =>   CDf =  0.01723    CDp = -0.01723

 MRCHDU: Convergence failed at  28  side 2    Res =  0.1198E+00
 MRCHDU: Convergence failed at  29  side 2    Res =  0.3257E+00
 Side 1  free  transition at x/c =  0.0049    8
 Side 2  free  transition at x/c =  0.9495   20

  70   rms: 0.1241E+05   max: 0.1378E+06   C at   29  2   RLX: 0.000
       a = 15.000      CL =  5.7802
      Cm = -1.1743     CD =  0.00000   =>   CDf =  0.01723    CDp = -0.01723

 MRCHDU: Convergence failed at  28  side 2    Res =  0.2758E-01
 MRCHDU: Convergence failed at  29  side 2    Res =  0.7268E+00
 Side 1  free  transition at x/c =  0.0049    8
 Side 2  free  transition at x/c =  0.9495   20

  71   rms: 0.5313E+04   max: -.5868E+05   C at   29  2   RLX: 0.000
       a = 15.000      CL =  5.7803
      Cm = -1.1743     CD =  0.00000   =>   CDf =  0.01723    CDp = -0.01723

 MRCHDU: Convergence failed at  28  side 2    Res =  0.6302E-01
 MRCHDU: Convergence failed at  29  side 2    Res =  0.7386E+00
 Side 1  free  transition at x/c =  0.0049    8
 Side 2  free  transition at x/c =  0.9495   20

  72   rms: 0.2224E+05   max: -.2458E+06   C at   29  2   RLX: 0.000
       a = 15.000      CL =  5.7803
      Cm = -1.1743     CD =  0.00000   =>   CDf =  0.01723    CDp = -0.01723

 MRCHDU: Convergence failed at  28  side 2    Res =  0.9833E-01
 MRCHDU: Convergence failed at  29  side 2    Res =  0.7505E+00
 Side 1  free  transition at x/c =  0.0049    8
 Side 2  free  transition at x/c =  0.9495   20

  73   rms: 0.1762E+05   max: 0.1944E+06   C at   29  2   RLX: 0.000
       a = 15.000      CL =  5.7801
      Cm = -1.1742     CD =  0.00000   =>   CDf =  0.01723    CDp = -0.01723

 MRCHDU: Convergence failed at  28  side 2    Res =  0.2522E-02
 MRCHDU: Convergence failed at  29  side 2    Res =  0.7168E+00
 Side 1  free  transition at x/c =  0.0049    8
 Side 2  free  transition at x/c =  0.9495   20

  74   rms: 0.3452E+04   max: -.3805E+05   C at   29  2   RLX: 0.000
       a = 15.000      CL =  5.7801
      Cm = -1.1742     CD =  0.00000   =>   CDf =  0.01723    CDp = -0.01723

 MRCHDU: Convergence failed at  28  side 2    Res =  0.3813E-01
 MRCHDU: Convergence failed at  29  side 2    Res =  0.7286E+00
 Side 1  free  transition at x/c =  0.0049    8
 Side 2  free  transition at x/c =  0.9495   20

  75   rms: 0.8784E+04   max: -.9695E+05   C at   29  2   RLX: 0.000
       a = 15.000      CL =  5.7801
      Cm = -1.1742     CD =  0.00000   =>   CDf =  0.01723    CDp = -0.01723

 MRCHDU: Convergence failed at  28  side 2    Res =  0.7356E-01
 MRCHDU: Convergence failed at  29  side 2    Res =  0.7405E+00
 Side 1  free  transition at x/c =  0.0049    8
 Side 2  free  transition at x/c =  0.9495   20

  76   rms: 0.9998E+05   max: 0.1103E+07   C at   29  2   RLX: 0.000
       a = 15.000      CL =  5.7800
      Cm = -1.1742     CD =  0.00000   =>   CDf =  0.01723    CDp = -0.01723

 MRCHDU: Convergence failed at  29  side 2    Res =  0.6845E+00
 Side 1  free  transition at x/c =  0.0049    8
 Side 2  free  transition at x/c =  0.9495   20

  77   rms: 0.2448E+04   max: -.2691E+05   C at   29  2   RLX: 0.000
       a = 15.000      CL =  5.7799
      Cm = -1.1742     CD =  0.00000   =>   CDf =  0.01723    CDp = -0.01723

 MRCHDU: Convergence failed at  28  side 2    Res =  0.1337E-01
 MRCHDU: Convergence failed at  29  side 2    Res =  0.7185E+00
 Side 1  free  transition at x/c =  0.0049    8
 Side 2  free  transition at x/c =  0.9495   20

  78   rms: 0.5146E+04   max: -.5669E+05   C at   29  2   RLX: 0.000
       a = 15.000      CL =  5.7800
      Cm = -1.1742     CD =  0.00000   =>   CDf =  0.01723    CDp = -0.01723

 MRCHDU: Convergence failed at  28  side 2    Res =  0.4893E-01
 MRCHDU: Convergence failed at  29  side 2    Res =  0.7303E+00
 Side 1  free  transition at x/c =  0.0049    8
 Side 2  free  transition at x/c =  0.9495   20

  79   rms: 0.2277E+05   max: -.2509E+06   C at   29  2   RLX: 0.000
       a = 15.000      CL =  5.7800
      Cm = -1.1742     CD =  0.00000   =>   CDf =  0.01723    CDp = -0.01723

 MRCHDU: Convergence failed at  28  side 2    Res =  0.8436E-01
 MRCHDU: Convergence failed at  29  side 2    Res =  0.7422E+00
 Side 1  free  transition at x/c =  0.0049    8
 Side 2  free  transition at x/c =  0.9495   20

  80   rms: 0.1610E+05   max: 0.1773E+06   C at   29  2   RLX: 0.000
       a = 15.000      CL =  5.7798
      Cm = -1.1741     CD =  0.00000   =>   CDf =  0.01723    CDp = -0.01723

 MRCHDU: Convergence failed at  29  side 2    Res =  0.6971E+00
 Side 1  free  transition at x/c =  0.0049    8
 Side 2  free  transition at x/c =  0.9495   20

  81   rms: 0.3347E+04   max: -.3679E+05   C at   29  2   RLX: 0.000
       a = 15.000      CL =  5.7798
      Cm = -1.1741     CD =  0.00000   =>   CDf =  0.01723    CDp = -0.01723

 MRCHDU: Convergence failed at  28  side 2    Res =  0.2408E-01
 MRCHDU: Convergence failed at  29  side 2    Res =  0.7203E+00
 Side 1  free  transition at x/c =  0.0049    8
 Side 2  free  transition at x/c =  0.9495   20

  82   rms: 0.8698E+04   max: -.9575E+05   C at   29  2   RLX: 0.000
       a = 15.000      CL =  5.7798
      Cm = -1.1741     CD =  0.00000   =>   CDf =  0.01723    CDp = -0.01723

 MRCHDU: Convergence failed at  28  side 2    Res =  0.5965E-01
 MRCHDU: Convergence failed at  29  side 2    Res =  0.7322E+00
 Side 1  free  transition at x/c =  0.0049    8
 Side 2  free  transition at x/c =  0.9495   20

  83   rms: 0.7131E+05   max: 0.7848E+06   C at   29  2   RLX: 0.000
       a = 15.000      CL =  5.7797
      Cm = -1.1741     CD =  0.00000   =>   CDf =  0.01723    CDp = -0.01723

 MRCHDU: Convergence failed at  29  side 2    Res =  0.6623E+00
 Side 1  free  transition at x/c =  0.0049    8
 Side 2  free  transition at x/c =  0.9495   20

  84   rms: 0.2368E+04   max: -.2596E+05   C at   29  2   RLX: 0.000
       a = 15.000      CL =  5.7796
      Cm = -1.1741     CD =  0.00000   =>   CDf =  0.01723    CDp = -0.01723

 MRCHDU: Convergence failed at  29  side 2    Res =  0.7096E+00
 Side 1  free  transition at x/c =  0.0049    8
 Side 2  free  transition at x/c =  0.9495   20

  85   rms: 0.5060E+04   max: -.5560E+05   C at   29  2   RLX: 0.000
       a = 15.000      CL =  5.7797
      Cm = -1.1741     CD =  0.00000   =>   CDf =  0.01723    CDp = -0.01723

 MRCHDU: Convergence failed at  28  side 2    Res =  0.3506E-01
 MRCHDU: Convergence failed at  29  side 2    Res =  0.7220E+00
 Side 1  free  transition at x/c =  0.0049    8
 Side 2  free  transition at x/c =  0.9495   20

  86   rms: 0.2432E+05   max: -.2674E+06   C at   29  2   RLX: 0.000
       a = 15.000      CL =  5.7797
      Cm = -1.1741     CD =  0.00000   =>   CDf =  0.01723    CDp = -0.01723

 MRCHDU: Convergence failed at  28  side 2    Res =  0.7063E-01
 MRCHDU: Convergence failed at  29  side 2    Res =  0.7338E+00
 Side 1  free  transition at x/c =  0.0049    8
 Side 2  free  transition at x/c =  0.9495   20

  87   rms: 0.1455E+05   max: 0.1599E+06   C at   29  2   RLX: 0.000
       a = 15.000      CL =  5.7795
      Cm = -1.1740     CD =  0.00000   =>   CDf =  0.01723    CDp = -0.01723

 MRCHDU: Convergence failed at  29  side 2    Res =  0.6750E+00
 Side 1  free  transition at x/c =  0.0049    8
 Side 2  free  transition at x/c =  0.9495   20

  88   rms: 0.3275E+04   max: -.3592E+05   C at   29  2   RLX: 0.000
       a = 15.000      CL =  5.7795
      Cm = -1.1740     CD =  0.00000   =>   CDf =  0.01723    CDp = -0.01723

 MRCHDU: Convergence failed at  28  side 2    Res =  0.1022E-01
 MRCHDU: Convergence failed at  29  side 2    Res =  0.7121E+00
 Side 1  free  transition at x/c =  0.0049    8
 Side 2  free  transition at x/c =  0.9495   20

  89   rms: 0.8786E+04   max: -.9647E+05   C at   29  2   RLX: 0.000
       a = 15.000      CL =  5.7795
      Cm = -1.1740     CD =  0.00000   =>   CDf =  0.01723    CDp = -0.01723

 MRCHDU: Convergence failed at  28  side 2    Res =  0.4592E-01
 MRCHDU: Convergence failed at  29  side 2    Res =  0.7238E+00
 Side 1  free  transition at x/c =  0.0049    8
 Side 2  free  transition at x/c =  0.9495   20

  90   rms: 0.4986E+05   max: 0.5473E+06   C at   29  2   RLX: 0.000
       a = 15.000      CL =  5.7793
      Cm = -1.1740     CD =  0.00000   =>   CDf =  0.01723    CDp = -0.01723

 MRCHDU: Convergence failed at  29  side 2    Res =  0.6402E+00
 Side 1  free  transition at x/c =  0.0049    8
 Side 2  free  transition at x/c =  0.9495   20

  91   rms: 0.2314E+04   max: -.2531E+05   C at   29  2   RLX: 0.000
       a = 15.000      CL =  5.7793
      Cm = -1.1740     CD =  0.00000   =>   CDf =  0.01723    CDp = -0.01723

 MRCHDU: Convergence failed at  29  side 2    Res =  0.6875E+00
 Side 1  free  transition at x/c =  0.0049    8
 Side 2  free  transition at x/c =  0.9495   20

  92   rms: 0.5044E+04   max: -.5528E+05   C at   29  2   RLX: 0.000
       a = 15.000      CL =  5.7793
      Cm = -1.1740     CD =  0.00000   =>   CDf =  0.01723    CDp = -0.01723

 MRCHDU: Convergence failed at  28  side 2    Res =  0.2132E-01
 MRCHDU: Convergence failed at  29  side 2    Res =  0.7137E+00
 Side 1  free  transition at x/c =  0.0049    8
 Side 2  free  transition at x/c =  0.9495   20

  93   rms: 0.2762E+05   max: -.3028E+06   C at   29  2   RLX: 0.000
       a = 15.000      CL =  5.7794
      Cm = -1.1740     CD =  0.00000   =>   CDf =  0.01723    CDp = -0.01723

 MRCHDU: Convergence failed at  28  side 2    Res =  0.5702E-01
 MRCHDU: Convergence failed at  29  side 2    Res =  0.7254E+00
 Side 1  free  transition at x/c =  0.0049    8
 Side 2  free  transition at x/c =  0.9495   20

  94   rms: 0.1294E+05   max: 0.1417E+06   C at   29  2   RLX: 0.000
       a = 15.000      CL =  5.7792
      Cm = -1.1739     CD =  0.00000   =>   CDf =  0.01723    CDp = -0.01723

 MRCHDU: Convergence failed at  29  side 2    Res =  0.6530E+00
 Side 1  free  transition at x/c =  0.0049    8
 Side 2  free  transition at x/c =  0.9495   20

  95   rms: 0.3235E+04   max: -.3538E+05   C at   29  2   RLX: 0.000
       a = 15.000      CL =  5.7792
      Cm = -1.1739     CD =  0.00000   =>   CDf =  0.01723    CDp = -0.01723

 MRCHDU: Convergence failed at  29  side 2    Res =  0.7003E+00
 Side 1  free  transition at x/c =  0.0049    8
 Side 2  free  transition at x/c =  0.9495   20

  96   rms: 0.9045E+04   max: -.9904E+05   C at   29  2   RLX: 0.000
       a = 15.000      CL =  5.7792
      Cm = -1.1739     CD =  0.00000   =>   CDf =  0.01723    CDp = -0.01723

 MRCHDU: Convergence failed at  28  side 2    Res =  0.3233E-01
 MRCHDU: Convergence failed at  29  side 2    Res =  0.7155E+00
 Side 1  free  transition at x/c =  0.0049    8
 Side 2  free  transition at x/c =  0.9495   20

  97   rms: 0.3571E+05   max: 0.3909E+06   C at   29  2   RLX: 0.000
       a = 15.000      CL =  5.7790
      Cm = -1.1739     CD =  0.00000   =>   CDf =  0.01723    CDp = -0.01723

 MRCHDU: Convergence failed at  29  side 2    Res =  0.6183E+00
 Side 1  free  transition at x/c =  0.0049    8
 Side 2  free  transition at x/c =  0.9495   20

  98   rms: 0.2272E+04   max: -.2477E+05   C at   29  2   RLX: 0.000
       a = 15.000      CL =  5.7790
      Cm = -1.1739     CD =  0.00000   =>   CDf =  0.01723    CDp = -0.01723

 MRCHDU: Convergence failed at  29  side 2    Res =  0.6656E+00
 Side 1  free  transition at x/c =  0.0049    8
 Side 2  free  transition at x/c =  0.9495   20

  99   rms: 0.5076E+04   max: -.5549E+05   C at   29  2   RLX: 0.000
       a = 15.000      CL =  5.7790
      Cm = -1.1739     CD =  0.00000   =>   CDf =  0.01723    CDp = -0.01723

 MRCHDU: Convergence failed at  28  side 2    Res =  0.7719E-02
 MRCHDU: Convergence failed at  29  side 2    Res =  0.7054E+00
 Side 1  free  transition at x/c =  0.0049    8
 Side 2  free  transition at x/c =  0.9495   20

 100   rms: 0.3394E+05   max: -.3711E+06   C at   29  2   RLX: 0.000
       a = 15.000      CL =  5.7791
      Cm = -1.1739     CD =  0.00000   =>   CDf =  0.01723    CDp = -0.01723
 VISCAL:  Convergence failed

.OPERva   c>  
 Polar accumulation disabled

.OPERv   c>  