  
       XFOIL         Version 6.99
  
 Calculated polar for: NACA63012A                                      
  
 1 1 Reynolds number fixed          Mach number fixed         
  
 xtrf =   1.000 (top)        1.000 (bottom)  
 Mach =   0.000     Re =     3.000 e 6     Ncrit =   9.000
  
   alpha    CL        CD       CDp       CM     Top_Xtr  Bot_Xtr
  ------ -------- --------- --------- -------- -------- --------
  -5.000  -0.5281   0.00793   0.00269  -0.0024   0.7945   0.0096
  -4.900  -0.5175   0.00786   0.00261  -0.0024   0.7918   0.0109
  -4.800  -0.5067   0.00779   0.00253  -0.0024   0.7885   0.0109
  -4.700  -0.4959   0.00773   0.00245  -0.0024   0.7847   0.0109
  -4.600  -0.4851   0.00768   0.00237  -0.0023   0.7806   0.0109
  -4.500  -0.4743   0.00764   0.00230  -0.0023   0.7762   0.0109
  -4.400  -0.4636   0.00759   0.00224  -0.0023   0.7713   0.0109
  -4.300  -0.4528   0.00755   0.00217  -0.0022   0.7657   0.0108
  -4.200  -0.4419   0.00751   0.00211  -0.0022   0.7594   0.0108
  -4.100  -0.4310   0.00747   0.00206  -0.0022   0.7534   0.0108
  -4.000  -0.4200   0.00743   0.00200  -0.0023   0.7498   0.0108
  -3.900  -0.4089   0.00738   0.00195  -0.0023   0.7489   0.0108
  -3.800  -0.3978   0.00733   0.00190  -0.0023   0.7477   0.0109
  -3.700  -0.3867   0.00728   0.00186  -0.0024   0.7461   0.0109
  -3.600  -0.3756   0.00724   0.00181  -0.0024   0.7439   0.0109
  -3.500  -0.3645   0.00720   0.00176  -0.0024   0.7410   0.0109
  -3.400  -0.3535   0.00717   0.00172  -0.0025   0.7377   0.0109
  -3.300  -0.3425   0.00714   0.00168  -0.0025   0.7340   0.0110
  -3.200  -0.3316   0.00711   0.00164  -0.0025   0.7302   0.0110
  -3.100  -0.3206   0.00708   0.00160  -0.0025   0.7260   0.0110
  -3.000  -0.3097   0.00706   0.00156  -0.0025   0.7215   0.0111
  -2.900  -0.2988   0.00704   0.00152  -0.0025   0.7163   0.0112
  -2.800  -0.2878   0.00701   0.00148  -0.0025   0.7103   0.0113
  -2.700  -0.2768   0.00698   0.00144  -0.0025   0.7043   0.0115
  -2.600  -0.2658   0.00695   0.00141  -0.0026   0.6999   0.0116
  -2.500  -0.2546   0.00690   0.00137  -0.0026   0.6992   0.0119
  -2.400  -0.2435   0.00686   0.00134  -0.0027   0.6981   0.0123
  -2.200  -0.2247   0.00634   0.00114  -0.0022   0.6947   0.0881
  -2.100  -0.2132   0.00636   0.00114  -0.0023   0.6922   0.0844
  -2.000  -0.2032   0.00621   0.00106  -0.0022   0.6891   0.1054
  -1.900  -0.1928   0.00611   0.00103  -0.0021   0.6856   0.1291
  -1.800  -0.1826   0.00599   0.00097  -0.0020   0.6819   0.1463
  -1.700  -0.1717   0.00597   0.00095  -0.0020   0.6767   0.1505
  -1.600  -0.1613   0.00594   0.00092  -0.0020   0.6680   0.1699
  -1.500  -0.1513   0.00584   0.00088  -0.0018   0.6561   0.1881
  -1.400  -0.1406   0.00579   0.00085  -0.0018   0.6491   0.1976
  -1.300  -0.1297   0.00573   0.00083  -0.0018   0.6458   0.2151
  -1.100  -0.1108   0.00543   0.00072  -0.0014   0.6290   0.2841
  -1.000  -0.1012   0.00536   0.00069  -0.0012   0.6163   0.3143
  -0.900  -0.0919   0.00521   0.00064  -0.0010   0.6043   0.3462
  -0.800  -0.0820   0.00506   0.00061  -0.0008   0.5997   0.3822
  -0.700  -0.0717   0.00495   0.00059  -0.0007   0.5985   0.4075
  -0.600  -0.0620   0.00479   0.00055  -0.0006   0.5966   0.4424
  -0.500  -0.0511   0.00475   0.00054  -0.0006   0.5932   0.4555
  -0.400  -0.0414   0.00465   0.00053  -0.0004   0.5867   0.4849
  -0.300  -0.0311   0.00465   0.00052  -0.0003   0.5751   0.4963
  -0.200  -0.0207   0.00469   0.00052  -0.0002   0.5571   0.5040
  -0.100  -0.0103   0.00463   0.00051  -0.0001   0.5478   0.5254
   0.000  -0.0000   0.00459   0.00051   0.0000   0.5402   0.5403
   0.100   0.0102   0.00464   0.00051   0.0001   0.5243   0.5481
   0.200   0.0206   0.00469   0.00052   0.0002   0.5029   0.5585
   0.300   0.0311   0.00465   0.00052   0.0003   0.4960   0.5757
   0.400   0.0411   0.00466   0.00053   0.0004   0.4812   0.5869
   0.500   0.0511   0.00475   0.00054   0.0006   0.4548   0.5932
   0.600   0.0620   0.00479   0.00055   0.0006   0.4433   0.5966
   0.700   0.0716   0.00496   0.00059   0.0008   0.4055   0.5985
   0.800   0.0819   0.00507   0.00061   0.0008   0.3804   0.5997
   0.900   0.0918   0.00521   0.00064   0.0010   0.3457   0.6052
   1.000   0.1011   0.00537   0.00069   0.0012   0.3108   0.6166
   1.100   0.1107   0.00545   0.00073   0.0014   0.2810   0.6287
   1.300   0.1297   0.00573   0.00083   0.0018   0.2143   0.6458
   1.400   0.1406   0.00579   0.00085   0.0018   0.1973   0.6491
   1.500   0.1513   0.00584   0.00088   0.0018   0.1888   0.6553
   1.600   0.1612   0.00594   0.00093   0.0020   0.1685   0.6681
   1.700   0.1717   0.00597   0.00095   0.0020   0.1494   0.6768
   1.800   0.1825   0.00600   0.00098   0.0020   0.1446   0.6819
   1.900   0.1928   0.00610   0.00103   0.0021   0.1301   0.6856
   2.000   0.2032   0.00621   0.00106   0.0022   0.1065   0.6891
   2.100   0.2131   0.00638   0.00114   0.0023   0.0831   0.6922
   2.200   0.2250   0.00631   0.00113   0.0022   0.0910   0.6947
   2.400   0.2435   0.00686   0.00134   0.0027   0.0123   0.6981
   2.500   0.2546   0.00690   0.00137   0.0026   0.0119   0.6992
   2.600   0.2658   0.00695   0.00141   0.0026   0.0116   0.6999
   2.700   0.2768   0.00698   0.00144   0.0025   0.0114   0.7044
   2.800   0.2878   0.00701   0.00148   0.0025   0.0113   0.7103
   2.900   0.2988   0.00704   0.00152   0.0025   0.0112   0.7162
   3.000   0.3097   0.00706   0.00156   0.0025   0.0111   0.7215
   3.100   0.3206   0.00708   0.00160   0.0025   0.0110   0.7260
   3.200   0.3316   0.00711   0.00164   0.0025   0.0110   0.7302
   3.300   0.3425   0.00714   0.00168   0.0025   0.0109   0.7340
   3.400   0.3535   0.00717   0.00172   0.0025   0.0109   0.7377
   3.500   0.3646   0.00720   0.00176   0.0024   0.0109   0.7410
   3.600   0.3756   0.00724   0.00181   0.0024   0.0109   0.7438
   3.700   0.3867   0.00728   0.00186   0.0024   0.0109   0.7460
   3.800   0.3978   0.00733   0.00190   0.0023   0.0109   0.7477
   3.900   0.4089   0.00738   0.00195   0.0023   0.0108   0.7489
   4.000   0.4200   0.00743   0.00200   0.0023   0.0108   0.7498
   4.100   0.4310   0.00747   0.00206   0.0022   0.0108   0.7534
   4.200   0.4419   0.00751   0.00211   0.0022   0.0108   0.7594
   4.300   0.4528   0.00755   0.00217   0.0022   0.0108   0.7657
   4.400   0.4636   0.00759   0.00224   0.0023   0.0109   0.7713
   4.500   0.4743   0.00764   0.00230   0.0023   0.0109   0.7762
   4.600   0.4851   0.00768   0.00237   0.0023   0.0109   0.7806
   4.700   0.4959   0.00773   0.00245   0.0023   0.0109   0.7847
   4.800   0.5067   0.00779   0.00253   0.0024   0.0109   0.7885
   4.900   0.5175   0.00786   0.00261   0.0024   0.0109   0.7918
   5.000   0.5281   0.00793   0.00268   0.0024   0.0096   0.7945
   5.100   0.5389   0.00800   0.00276   0.0024   0.0091   0.7968
   5.200   0.5497   0.00808   0.00284   0.0024   0.0089   0.7985
   5.300   0.5606   0.00816   0.00293   0.0024   0.0087   0.7999
   5.400   0.5713   0.00823   0.00301   0.0024   0.0086   0.8061
   5.500   0.5818   0.00829   0.00310   0.0024   0.0084   0.8143
   5.600   0.5922   0.00835   0.00320   0.0025   0.0083   0.8217
   5.700   0.6027   0.00840   0.00328   0.0026   0.0084   0.8281
   5.800   0.6132   0.00846   0.00337   0.0027   0.0084   0.8340
   5.900   0.6237   0.00854   0.00347   0.0027   0.0083   0.8393
   6.000   0.6342   0.00862   0.00357   0.0028   0.0083   0.8441
   6.100   0.6448   0.00871   0.00368   0.0028   0.0082   0.8479
   6.200   0.6553   0.00880   0.00379   0.0029   0.0082   0.8526
   6.300   0.6652   0.00887   0.00391   0.0031   0.0081   0.8659
   6.400   0.6749   0.00894   0.00403   0.0033   0.0081   0.8772
   6.500   0.6848   0.00903   0.00416   0.0035   0.0080   0.8866
   6.600   0.6949   0.00913   0.00430   0.0037   0.0080   0.8935
   6.700   0.7052   0.00925   0.00444   0.0038   0.0079   0.8981
   6.800   0.7153   0.00938   0.00459   0.0039   0.0079   0.9053
   6.900   0.7249   0.00949   0.00476   0.0042   0.0078   0.9190
   7.000   0.7346   0.00963   0.00495   0.0044   0.0078   0.9296
   7.100   0.7443   0.00980   0.00516   0.0046   0.0077   0.9384
   7.200   0.7541   0.00998   0.00538   0.0048   0.0076   0.9450
   7.300   0.7638   0.01019   0.00561   0.0049   0.0076   0.9494
   7.400   0.7800   0.00966   0.00493   0.0038   0.0073   0.9543
   7.500   0.7937   0.00967   0.00491   0.0031   0.0073   0.9618
   7.600   0.8073   0.00971   0.00494   0.0025   0.0072   0.9679
   7.700   0.8205   0.00977   0.00499   0.0019   0.0072   0.9730
   7.800   0.8335   0.00984   0.00504   0.0014   0.0071   0.9775
   7.900   0.8463   0.00992   0.00511   0.0009   0.0071   0.9813
   8.000   0.8589   0.01000   0.00519   0.0004   0.0070   0.9844
   8.100   0.8713   0.01009   0.00527   0.0000   0.0070   0.9870
   8.200   0.8835   0.01018   0.00535  -0.0003   0.0069   0.9890
   8.300   0.8957   0.01026   0.00543  -0.0007   0.0068   0.9908
   8.400   0.9076   0.01036   0.00552  -0.0010   0.0068   0.9923
   8.500   0.9195   0.01045   0.00561  -0.0013   0.0067   0.9935
   8.600   0.9312   0.01055   0.00569  -0.0016   0.0066   0.9946
   8.700   0.9429   0.01065   0.00579  -0.0018   0.0065   0.9955
   8.800   0.9545   0.01074   0.00588  -0.0020   0.0065   0.9963
   8.900   0.9660   0.01084   0.00597  -0.0023   0.0064   0.9969
   9.000   0.9774   0.01094   0.00607  -0.0025   0.0063   0.9975
   9.100   0.9889   0.01104   0.00616  -0.0027   0.0062   0.9980
   9.200   1.0002   0.01114   0.00626  -0.0029   0.0061   0.9984
   9.300   1.0115   0.01125   0.00636  -0.0031   0.0060   0.9988
   9.400   1.0228   0.01136   0.00645  -0.0033   0.0059   0.9991
   9.500   1.0341   0.01147   0.00656  -0.0035   0.0058   0.9994
   9.600   1.0455   0.01159   0.00666  -0.0037   0.0057   0.9997
   9.700   1.0569   0.01171   0.00677  -0.0039   0.0056   0.9999
   9.800   1.0658   0.01183   0.00688  -0.0036   0.0055   1.0000
   9.900   1.0734   0.01194   0.00699  -0.0030   0.0054   1.0000
  10.000   1.0810   0.01206   0.00710  -0.0024   0.0053   1.0000
  10.100   1.0886   0.01218   0.00722  -0.0018   0.0052   1.0000
  10.200   1.0969   0.01227   0.00739  -0.0013   0.0056   1.0000
  10.300   1.1048   0.01238   0.00751  -0.0008   0.0056   1.0000
  10.400   1.1131   0.01250   0.00763  -0.0004   0.0056   1.0000
  10.500   1.1217   0.01263   0.00774   0.0000   0.0055   1.0000
  10.600   1.1305   0.01276   0.00787   0.0003   0.0054   1.0000
  10.700   1.1394   0.01290   0.00801   0.0006   0.0053   1.0000
  10.800   1.1484   0.01305   0.00816   0.0009   0.0051   1.0000
  10.900   1.1573   0.01321   0.00832   0.0011   0.0050   1.0000
  11.000   1.1665   0.01336   0.00848   0.0013   0.0050   1.0000
  11.100   1.1757   0.01351   0.00864   0.0016   0.0050   1.0000
  11.200   1.1848   0.01367   0.00880   0.0018   0.0049   1.0000
  11.300   1.1940   0.01383   0.00897   0.0020   0.0049   1.0000
  11.400   1.2031   0.01399   0.00914   0.0022   0.0049   1.0000
  11.500   1.2123   0.01416   0.00931   0.0024   0.0049   1.0000
  11.600   1.2214   0.01433   0.00949   0.0026   0.0049   1.0000
  11.700   1.2305   0.01450   0.00968   0.0028   0.0049   1.0000
  11.800   1.2395   0.01468   0.00986   0.0030   0.0049   1.0000
  11.900   1.2485   0.01486   0.01005   0.0032   0.0048   1.0000
  12.000   1.2574   0.01504   0.01025   0.0034   0.0048   1.0000
  12.100   1.2663   0.01523   0.01045   0.0036   0.0048   1.0000
  12.200   1.2751   0.01542   0.01065   0.0038   0.0048   1.0000
  12.300   1.2839   0.01562   0.01086   0.0040   0.0048   1.0000
  12.400   1.2926   0.01582   0.01107   0.0042   0.0048   1.0000
  12.500   1.3012   0.01602   0.01129   0.0045   0.0048   1.0000
  12.600   1.3098   0.01623   0.01151   0.0047   0.0048   1.0000
  12.700   1.3183   0.01645   0.01174   0.0050   0.0047   1.0000
  12.800   1.3266   0.01667   0.01198   0.0052   0.0047   1.0000
  12.900   1.3349   0.01689   0.01221   0.0055   0.0047   1.0000
  13.000   1.3431   0.01712   0.01246   0.0058   0.0047   1.0000
  13.100   1.3512   0.01735   0.01271   0.0060   0.0047   1.0000
  13.200   1.3591   0.01759   0.01297   0.0063   0.0047   1.0000
  13.300   1.3669   0.01784   0.01323   0.0067   0.0047   1.0000
  13.400   1.3746   0.01809   0.01350   0.0070   0.0047   1.0000
  13.500   1.3822   0.01835   0.01377   0.0073   0.0047   1.0000
  13.600   1.3896   0.01862   0.01406   0.0077   0.0047   1.0000
  13.700   1.3967   0.01889   0.01435   0.0081   0.0046   1.0000
  13.800   1.4032   0.01916   0.01464   0.0086   0.0046   1.0000
  13.900   1.4094   0.01944   0.01494   0.0091   0.0046   1.0000
  14.000   1.4155   0.01973   0.01525   0.0096   0.0046   1.0000
  14.300   1.4332   0.02067   0.01626   0.0112   0.0046   1.0000
  14.800   1.4579   0.02255   0.01826   0.0139   0.0046   1.0000
  14.900   1.4611   0.02305   0.01883   0.0146   0.0045   1.0000
